            TRNSYS - the TRaNsient SYstem Simulation program

   The Solar Energy Lab at the University of Wisconsin - Madison, USA
Le Centre Scientifique et Technique du Batiment, Sophia Antipolis, France
           Transsolar Energietechnik GmBH, Stuttgart, Germany
        Thermal Energy System Specialists, Madison Wisconsin, USA

                           Release 16.xx.xxxx

Listing file for: "C:\Users\tneises\Documents\Projects\tcs\typelib\MS_Cavity_Power_Tower\trnsys.tower.BASE.trd"
 
*** Notice at time        :         0.000000
    Generated by Unit     : Not applicable or not available
    Generated by Type     : Not applicable or not available
    Message               : The TRNSYS Executable (TRNExe.exe) and main DLL (TRNDll.dll) are located in "."
 

 *** Pre-Processing the TRNSYS EQUATIONs and CONSTANTs to check for fatal errors.

 *** Pre-Processing of EQUATIONs and CONSTANTs completed with no fatal errors found.

 *** Evaluating the EQUATIONs and CONSTANTs to determine their initial values.

 *** Finished evaluating the EQUATIONs and CONSTANTs and ready to begin processing the remainder of the TRNSYS input file.

  VERSION        16
*****************************************************************                                                                                                                                                                                                                                                                                                                                                                                                                                                                                                                                                                                                                                                                                                                                                                                                                                                                                                                                                                       
*** TRNSYS input file generated by samsim 2.3.3                                                                                                                                                                                                                                                                                                                                                                                                                                                                                                                                                                                                                                                                                                                                                                                                                                                                                                                                                                                         
*** DECK C:\SAM\2012.9.12/exelib/trnsys/decks/csp_cavtower.trdsrc                                                                                                                                                                                                                                                                                                                                                                                                                                                                                                                                                                                                                                                                                                                                                                                                                                                                                                                                                                       
*** Copyright (c) 2010 National Renewable Energy Laboratory                                                                                                                                                                                                                                                                                                                                                                                                                                                                                                                                                                                                                                                                                                                                                                                                                                                                                                                                                                             
*****************************************************************                                                                                                                                                                                                                                                                                                                                                                                                                                                                                                                                                                                                                                                                                                                                                                                                                                                                                                                                                                       
*** BEGIN INCLUDE SECTION ***                                                                                                                                                                                                                                                                                                                                                                                                                                                                                                                                                                                                                                                                                                                                                                                                                                                                                                                                                                                                           
  ASSIGN C:\SAM\2013.1.15/exelib/climate_files/CA Daggett.tm2   30
  ASSIGN C:\Users\tneises\Documents\Projects\tcs\typelib\MS_Cavity_Power_Tower/touperiod.in   53
  ASSIGN C:\Users\tneises\Documents\Projects\tcs\typelib\MS_Cavity_Power_Tower/eff_array.dat   10
  ASSIGN C:\Users\tneises\Documents\Projects\tcs\typelib\MS_Cavity_Power_Tower/flux_map.csv   60
  ASSIGN C:\Users\tneises\Documents\Projects\tcs\typelib\MS_Cavity_Power_Tower/towerBASE.annual.out   58
  ASSIGN C:\Users\tneises\Documents\Projects\tcs\typelib\MS_Cavity_Power_Tower/towerBASE.hourly.out   54
  ASSIGN C:\Users\tneises\Documents\Projects\tcs\typelib\MS_Cavity_Power_Tower/StepBASE.out   61
  ASSIGN C:\Users\tneises\Documents\Projects\tcs\typelib\MS_Cavity_Power_Tower/towerBASE.monthly.out   57
  ASSIGN C:\Users\tneises\Documents\Projects\tcs\typelib\MS_Cavity_Power_Tower/fluidprop.dat   95
  ASSIGN C:\Users\tneises\Documents\Projects\tcs\typelib\MS_Cavity_Power_Tower/warningsBASE.out   96
  ASSIGN C:\Users\tneises\Documents\Projects\tcs\typelib\MS_Cavity_Power_Tower/pb_coeff.in   65
  ASSIGN C:\Users\tneises\Documents\Projects\tcs\typelib\MS_Cavity_Power_Tower\receiver_surface_emissivity_pyromark.dat   13
* START, STOP and STEP                                                                                                                                                                                                                                                                                                                                                                                                                                                                                                                                                                                                                                                                                                                                                                                                                                                                                                                                                                                                                  

  EQUATIONS   9
     I_MONTH= 0
     I_DAY1= 1
     I_DAY=I_MONTH/24+I_DAY1
     I_LENGTH= 365
     WEEKS=I_LENGTH/7
     START=24*(I_DAY-1)+1
     STOP=START+I_LENGTH*24-1
     STEP=1
     dispswch= -1
*This value controls if the online plot is displayed (-1=off, 0 or 1 is on)                                                                                                                                                                                                                                                                                                                                                                                                                                                                                                                                                                                                                                                                                                                                                                                                                                                                                                                                                             

  CONSTANTS   2
     TRAKMODE=4
     WFType = 2
*********************** HELIOSTAT FIELD PAGE **********************                                                                                                                                                                                                                                                                                                                                                                                                                                                                                                                                                                                                                                                                                                                                                                                                                                                                                                                                                                     

  CONSTANTS   9
     num_zen = 8
     num_azi = 13
     num_helio = 6235
     wind_stow_speed = 15
     h_helio = 12.2
     w_helio = 12.2
     Hel_dens = 0.97
     hel_stow_deploy = 8
     field_angle = 60
*********************** RECEIVER/TOWER FIELD PAGE **********************                                                                                                                                                                                                                                                                                                                                                                                                                                                                                                                                                                                                                                                                                                                                                                                                                                                                                                                                                                

  CONSTANTS  26
     is_north = 1
     num_panels = 20
     d_rec = 15.11
     h_rec = 28.743
     H_lip = 3.09
     Rec_d_spec = 28
     h_tower = 287.91
     d_tube = 40
     th_tube = 1.25
     Material = 2
     HTF = 17
     flow_pattern = 6
     HTF_rec_out = 574
     HTF_max_inlet = 350
     Rec_HTF_max_flow = 5.76746e+006
     Rec_coating_abs = 0.65
     epsilon = 0.88
     night_recirc = 0
     recirc_htr_eff = 1
     nazm = 12
     nrad = 12
     Plant_lattitude = 34.8667
     f_rec_min = 0.25
     Q_rec_des = 514.118
     rec_su_delay = 0.2
     rec_qf_delay = 0.25
****************Power Block page****************                                                                                                                                                                                                                                                                                                                                                                                                                                                                                                                                                                                                                                                                                                                                                                                                                                                                                                                                                                                        

  CONSTANTS  25
     tech_type = 1
     LU_pb = 65
     P_cycle_design = 115
     Eff_cycle_design = 0.425
     T_HTF_in_ref = 574
     T_HTF_out_ref = 290
     P_boiler = 100
     Cycle_min_inlet_temp = 500
     T_standby = 2
     F_standby = 0.2
     startup_time = 0.5
     startup_frac = 0.5
     hl_ffact = 1
     cycle_cutoff_frac = 0.25
     cycle_max_fraction = 1.05
     LHV_eff = 0.9
     T_amb_des = 20
     dT_cooling_ref = 10
     Cool_type = 1
     T_approach = 5
     T_ITD_des = 16
     P_cond_ratio = 1.0028
     pb_bd_frac = 0.02
     min_cond_pres = 1.25
     hr_pl_nlev = 2
****************Thermal storage page****************                                                                                                                                                                                                                                                                                                                                                                                                                                                                                                                                                                                                                                                                                                                                                                                                                                                                                                                                                                                    

  CONSTANTS  24
     fossil_mode = 1
     storage_bypass = 0
     Is_two_tank = 1
     V_tank_tot = 7553.18
     h_tank = 20
     h_tank_min = 1
     h_tank_wetted = 0.4
     h_tank_dry = 0.25
     T_store_hot_initial = 574
     T_store_cold_initial = 290
     V_store_hot_initial = 2265.95
     V_store_cold_initial = 5287.23
     tank_pairs = 1
     T_htr_ctank= 280
     T_htr_htank= 500
     Q_max_ctank= 30
     Q_max_htank= 30
     eta_tank_htr= 0.99
     TC_Fill = 8
     f_TC_cold = 0.7
     f_void = 0.25
     tc_nodes = 100
     T_dis_out_min = 500
     T_ch_out_max = 400

  CONSTANTS  38
     TSHOURS = 6
     NUMTOU = 9
     TSLOGICT = 0
     TSLOGIC1 = 0
     TSLOGIC2 = 1.05
     TSLOGIC3 = 0
     TSLOGIC4 = 0
     TSLOGIC5 = 1
     TSLOGIC6 = 0
     TSLOGIC7 = 0
     TSLOGIC8 = 1
     TSLOGIC9 = 0
     TSLOGI10 = 0
     TSLOGI11 = 1
     TSLOGI12 = 0
     TSLOGI13 = 0
     TSLOGI14 = 1
     TSLOGI15 = 0
     TSLOGI16 = 0
     TSLOGI17 = 1
     TSLOGI18 = 0
     TSLOGI19 = 0
     TSLOGI20 = 1
     TSLOGI21 = 0
     TSLOGI22 = 0
     TSLOGI23 = 1
     TSLOGI24 = 0
     TSLOGI25 = 0
     TSLOGI26 = 1
     FOSSILFI = 0
     FOSSILF1 = 0
     FOSSILF2 = 0
     FOSSILF3 = 0
     FOSSILF4 = 0
     FOSSILF5 = 0
     FOSSILF6 = 0
     FOSSILF7 = 0
     FOSSILF8 = 0

  CONSTANTS   9
     HC_LOGIC0 = 0
     HC_LOGIC1 = 0
     HC_LOGIC2 = 0
     HC_LOGIC3 = 0
     HC_LOGIC4 = 0
     HC_LOGIC5 = 0
     HC_LOGIC6 = 0
     HC_LOGIC7 = 0
     HC_LOGIC8 = 0
****************Parasitics page****************                                                                                                                                                                                                                                                                                                                                                                                                                                                                                                                                                                                                                                                                                                                                                                                                                                                                                                                                                                                         

  CONSTANTS  18
     P_hel_start = 0.025
     P_hel_track = 0.055
     eta_rec_pump = 0.85
     PB_pump_coef = 0.55
     TES_pump_coef = 0.15
     piping_loss = 10200
     piping_length = 748.566
     aux_par_0 = 0.483
     aux_par_1 = 0.571
     aux_par_2 = 0
     aux_par_f = 1
     aux_par = 0.023
     bop_par_0 = 0.483
     bop_par_1 = 0.571
     bop_par_2 = 0
     bop_par_f = 1
     bop_par = 0
     pb_fixed_par = 0.0055
*END OF INCLUDE FILE                                                                                                                                                                                                                                                                                                                                                                                                                                                                                                                                                                                                                                                                                                                                                                                                                                                                                                                                                                                                                    
*** USER VARIABLES ***                                                                                                                                                                                                                                                                                                                                                                                                                                                                                                                                                                                                                                                                                                                                                                                                                                                                                                                                                                                                                  

  CONSTANTS  10
     UDV1 = 0
     UDV2 = 0
     UDV3 = 0
     UDV4 = 0
     UDV5 = 0
     UDV6 = 0
     UDV7 = 0
     UDV8 = 0
     UDV9 = 0
     UDV10 = 0
*** END INCLUDE SECTION ***                                                                                                                                                                                                                                                                                                                                                                                                                                                                                                                                                                                                                                                                                                                                                                                                                                                                                                                                                                                                             
*** BEGIN DECK ***                                                                                                                                                                                                                                                                                                                                                                                                                                                                                                                                                                                                                                                                                                                                                                                                                                                                                                                                                                                                                      
*########################################################################                                                                                                                                                                                                                                                                                                                                                                                                                                                                                                                                                                                                                                                                                                                                                                                                                                                                                                                                                               
! Start time    End time        Time step                                                                                                                                                                                                                                                                                                                                                                                                                                                                                                                                                                                                                                                                                                                                                                                                                                                                                                                                                       

  SIMULATION         1.0000000000000000E+00    8.7600000000000000E+03    1.0000000000000000E+00
! Integration    Convergence                                                                                                                                                                                                                                                                                                                                                                                                                                                                                                                                                                                                                                                                                                                                                                                                                                                                                                                                                                   

  TOLERANCES         1.0000000000000002E-03    5.0000000000000012E-04
! Max iterations        Max warnings    Trace limit                                                                                                                                                                                                                                                                                                                                                                                                                                                                                                                                                                                                                                                                                                                                                                                                                                                                                                                                            

  LIMITS        30       400        31
! TRNSYS numerical integration solver method                                                                                                                                                                                                                                                                                                                                                                                                                                                                                                                                                                                                                                                                                                                                                                                                                                                                                                                                                    

  DFQ   1
! TRNSYS output file width, number of characters                                                                                                                                                                                                                                                                                                                                                                                                                                                                                                                                                                                                                                                                                                                                                                                                                                                                                                                                                

  WIDTH    80
! NOLIST statement                                                                                                                                                                                                                                                                                                                                                                                                                                                                                                                                                                                                                                                                                                                                                                                                                                                                                                                                                                              

  LIST
! MAP statement                                                                                                                                                                                                                                                                                                                                                                                                                                                                                                                                                                                                                                                                                                                                                                                                                                                                                                                                                                                 

  MAP
! Solver statement      Minimum relaxation factor       Maximum relaxation factor                                                                                                                                                                                                                                                                                                                                                                                                                                                                                                                                                                                                                                                                                                                                                                                                                                                                                                               

  SOLVER  0
    1.000000000000000    
    1.000000000000000    
! Nan DEBUG statement                                                                                                                                                                                                                                                                                                                                                                                                                                                                                                                                                                                                                                                                                                                                                                                                                                                                                                                                                                           

  NAN_CHECK   0
! Overwrite DEBUG statement                                                                                                                                                                                                                                                                                                                                                                                                                                                                                                                                                                                                                                                                                                                                                                                                                                                                                                                                                                     

  OVERWRITE_CHECK   0
! EQUATION SOLVER statement                                                                                                                                                                                                                                                                                                                                                                                                                                                                                                                                                                                                                                                                                                                                                                                                                                                                                                                                                                     

  EQUATION SOLVING METHOD         0

  UNIT   3     TYPE  15                                                   
       PARAMETERS  10
! 1 File Type                                                                                                                                                                                                                                                                                                                                                                                                                                                                                                                                                                                                                                                                                                                                                                                                                                                                                                                                                                                                                    
! 2 Logical unit                                                                                                                                                                                                                                                                                                                                                                                                                                                                                                                                                                                                                                                                                                                                                                                                                                                                                                                                                                                                                    
! 3 Tilted Surface Radiation Mode                                                                                                                                                                                                                                                                                                                                                                                                                                                                                                                                                                                                                                                                                                                                                                                                                                                                                                                                                                                                    
! 4 Ground reflectance - no snow                                                                                                                                                                                                                                                                                                                                                                                                                                                                                                                                                                                                                                                                                                                                                                                                                                                                                                                                                                                                   
! 5 Ground reflectance - snow cover                                                                                                                                                                                                                                                                                                                                                                                                                                                                                                                                                                                                                                                                                                                                                                                                                                                                                                                                                                                                
! 6 RAD_IN_MODE Total and DNI                                                                                                                                                                                                                                                                                                                                                                                                                                                                                                                                                                                                                                                                                                                                                                                                                                                                                                                                                                                                        
! 7 Number of surfaces                                                                                                                                                                                                                                                                                                                                                                                                                                                                                                                                                                                                                                                                                                                                                                                                                                                                                                                                                                                                          
! 8 Tracking mode                                                                                                                                                                                                                                                                                                                                                                                                                                                                                                                                                                                                                                                                                                                                                                                                                                                                                                                                                                                                                    
! 9 Slope of surface                                                                                                                                                                                                                                                                                                                                                                                                                                                                                                                                                                                                                                                                                                                                                                                                                                                                                                                                                                                                              
! 10 Azimuth of surface                                                                                                                                                                                                                                                                                                                                                                                                                                                                                                                                                                                                                                                                                                                                                                                                                                                                                                                                                                                                         
       2.0000000000000000E+00    3.0000000000000000E+01    3.0000000000000000E+00    2.0000000000000001E-01    7.0000000000000007E-01
       1.0000000000000000E+00    1.0000000000000000E+00    1.0000000000000000E+00    0.0000000000000000E+00    0.0000000000000000E+00
****Assign weather data variables and perform any required unit conversions****                                                                                                                                                                                                                                                                                                                                                                                                                                                                                                                                                                                                                                                                                                                                                                                                                                                                                                                                                         

  EQUATIONS  11
! DNI                                                                                                                                                                                                                                                                                                                                                                                                                                                                                                                                                                                                                                                                                                                                                                                                                                                                                                                                                                                                                  
     c_DNI = [3,15]
! wind speed                                                                                                                                                                                                                                                                                                                                                                                                                                                                                                                                                                                                                                                                                                                                                                                                                                                                                                                                                                                                           
     c_wspd = [3,8]
! dry bulb                                                                                                                                                                                                                                                                                                                                                                                                                                                                                                                                                                                                                                                                                                                                                                                                                                                                                                                                                                                                               
     c_db = [3,1]
! atmospheric pressure -> convert to atm                                                                                                                                                                                                                                                                                                                                                                                                                                                                                                                                                                                                                                                                                                                                                                                                                                                                                                                                                                              
     c_pres = [3,10]
! dew point                                                                                                                                                                                                                                                                                                                                                                                                                                                                                                                                                                                                                                                                                                                                                                                                                                                                                                                                                                                                              
     c_dp = [3,2]
! wet bulb temperature                                                                                                                                                                                                                                                                                                                                                                                                                                                                                                                                                                                                                                                                                                                                                                                                                                                                                                                                                                                                   
     c_wb = [3,3]
! relative humidity                                                                                                                                                                                                                                                                                                                                                                                                                                                                                                                                                                                                                                                                                                                                                                                                                                                                                                                                                                                                  
     c_rh = [3,7]/100.
     hour_day = [3,56]
!This convention is required for Type16                                                                                                                                                                                                                                                                                                                                                                                                                                                                                                                                                                                                                                                                                                                                                                                                                                                                                                                                                                
*SHIFT = longitude - timezone*15                                                                                                                                                                                                                                                                                                                                                                                                                                                                                                                                                                                                                                                                                                                                                                                                                                                                                                                                                                                                        
     c_azi = [3,17]
     c_zen = [3,16]
!In situations where DNI forecasting isn't available, provide info on the solar elevation                                                                                                                                                                                                                                                                                                                                                                                                                                                                                                                                                                                                                                                                                                                                                                                                                                                                                                                           
     dnifc = 90.-c_zen
*******************************************************************************                                                                                                                                                                                                                                                                                                                                                                                                                                                                                                                                                                                                                                                                                                                                                                                                                                                                                                                                                         
* Model HTF Prop1 (Type 229)                                                                                                                                                                                                                                                                                                                                                                                                                                                                                                                                                                                                                                                                                                                                                                                                                                                                                                                                                                                                            

  UNIT   7     TYPE 229     Prop1                                         
       PARAMETERS   3
! 1 Fluid number                                                                                                                                                                                                                                                                                                                                                                                                                                                                                                                                                                                                                                                                                                                                                                                                                                                                                                                                                                                                                    
! 2 Fluid file logical number                                                                                                                                                                                                                                                                                                                                                                                                                                                                                                                                                                                                                                                                                                                                                                                                                                                                                                                                                                                                       
! 3 Fluid error file logical number                                                                                                                                                                                                                                                                                                                                                                                                                                                                                                                                                                                                                                                                                                                                                                                                                                                                                                                                                                                                 
       2.0000000000000000E+01    9.5000000000000000E+01    9.6000000000000000E+01
       INPUTS    1
! HotTank:Fluid temperature ->Temperature                                                                                                                                                                                                                                                                                                                                                                                                                                                                                                                                                                                                                                                                                                                                                                                                                                                                                                                                                                                    
       I_LENGTH            
*** INITIAL INPUT VALUES                                                                                                                                                                                                                                                                                                                                                                                                                                                                                                                                                                                                                                                                                                                                                                                                                                                                                                                                                                                                                
       3.6500000000000000E+02
*** BEGIN DECK ***                                                                                                                                                                                                                                                                                                                                                                                                                                                                                                                                                                                                                                                                                                                                                                                                                                                                                                                                                                                                                      
*---------Common for both weather file configurations starting here---------                                                                                                                                                                                                                                                                                                                                                                                                                                                                                                                                                                                                                                                                                                                                                                                                                                                                                                                                                            
* Model "TOUPERiod" (Type 9)                                                                                                                                                                                                                                                                                                                                                                                                                                                                                                                                                                                                                                                                                                                                                                                                                                                                                                                                                                                                            
*|*                                                                                                                                                                                                                                                                                                                                                                                                                                                                                                                                                                                                                                                                                                                                                                                                                                                                                                                                                                                                                                     
*|* *** Model TOUPERiod (Type 9, Unit 8)                                                                                                                                                                                                                                                                                                                                                                                                                                                                                                                                                                                                                                                                                                                                                                                                                                                                                                                                                                                                
*|*                                                                                                                                                                                                                                                                                                                                                                                                                                                                                                                                                                                                                                                                                                                                                                                                                                                                                                                                                                                                                                     

  CONSTANTS   7
*|*PARAMETERS                           VALUES                  UNITS                                                                                                                                                                                                                                                                                                                                                                                                                                                                                                                                                                                                                                                                                                                                                                                                                                                                                                                                                                   
     HEADERLI=1
*|Header Lines to Skip                    |-|-|0|1|0|1000000.00000|1000                                                                                                                                                                                                                                                                                                                                                                                                                                                                                                                                                                                                                                                                                                                                                                                                                                                                                                                                                                 
     NOOFVALU=1
*|No. of values to read                   |-|-|0|1|1|98.000|1000                                                                                                                                                                                                                                                                                                                                                                                                                                                                                                                                                                                                                                                                                                                                                                                                                                                                                                                                                                        
     TIMEINTE=1.0
*|Time interval of data                   |hr|hr|0|1|0.0|1000000.00000|1000                                                                                                                                                                                                                                                                                                                                                                                                                                                                                                                                                                                                                                                                                                                                                                                                                                                                                                                                                             
     INTERPOL=-1
*|Interpolate or not?                     |-|-|0|1|-1|1.000|1000                                                                                                                                                                                                                                                                                                                                                                                                                                                                                                                                                                                                                                                                                                                                                                                                                                                                                                                                                                        
     MULTIPLI=1.0
*|Multiplication factor                   |-|-|0|1|-1000000.00000|1000000.00000|1000                                                                                                                                                                                                                                                                                                                                                                                                                                                                                                                                                                                                                                                                                                                                                                                                                                                                                                                                                    
     ADDITION=0
*|Addition factor                         |-|-|0|1|-1000000.00000|1000000.00000|1000                                                                                                                                                                                                                                                                                                                                                                                                                                                                                                                                                                                                                                                                                                                                                                                                                                                                                                                                                    
     AVERAGEO=1
*|Average or instantaneous value          |-|-|0|1|0|1.000|1000                                                                                                                                                                                                                                                                                                                                                                                                                                                                                                                                                                                                                                                                                                                                                                                                                                                                                                                                                                         

  UNIT   8     TYPE   9                                                   
*$UNIT_NAME TOUPERiod                                                                                                                                                                                                                                                                                                                                                                                                                                                                                                                                                                                                                                                                                                                                                                                                                                                                                                                                                                                                                   
[...]
       OUTPUT  8          15  25  32
       OUTPUT  9          15  25  33
       OUTPUT  2          22  24  11
       OUTPUT  3          22  24  12
       OUTPUT  4          22  24  13
       OUTPUT  7          22  24  14
       OUTPUT  8          22  24  15
       OUTPUT  9          22  24  16
       OUTPUT  2          24  24  11
       OUTPUT  3          24  24  12
       OUTPUT  4          24  24  13
       OUTPUT  7          24  24  14
       OUTPUT  8          24  24  15
       OUTPUT  9          24  24  16
       OUTPUT  2          32  24  28
       OUTPUT  3          32  24  29
       OUTPUT  4          32  24  30
       OUTPUT  7          32  24  31
       OUTPUT  8          32  24  32
       OUTPUT  9          32  24  33

  UNIT 15 TYPE 25  UNIT/TYPE/INPUT

  UNIT 22 TYPE 24  UNIT/TYPE/INPUT
       OUTPUT  1          23  25   1
       OUTPUT  2          23  25   2
       OUTPUT  3          23  25   3
       OUTPUT  4          23  25   4
       OUTPUT  5          23  25   5
       OUTPUT  6          23  25   6
       OUTPUT  7          23  25   7
       OUTPUT  8          23  25   8
       OUTPUT  9          23  25   9
       OUTPUT 10          23  25  10
       OUTPUT 11          23  25  11
       OUTPUT 12          23  25  12
       OUTPUT 13          23  25  13
       OUTPUT 14          23  25  14
       OUTPUT 15          23  25  15
       OUTPUT 16          23  25  16
       OUTPUT 17          23  25  17
       OUTPUT 18          23  25  18
       OUTPUT 19          23  25  19
       OUTPUT 20          23  25  20
       OUTPUT 21          23  25  21
       OUTPUT 22          23  25  22
       OUTPUT 23          23  25  23
       OUTPUT 24          23  25  24
       OUTPUT 25          23  25  25
       OUTPUT 26          23  25  26
       OUTPUT 27          23  25  27
       OUTPUT 28          23  25  28
       OUTPUT 29          23  25  29
       OUTPUT 30          23  25  30
       OUTPUT 31          23  25  31
       OUTPUT 32          23  25  32
       OUTPUT 33          23  25  33

  UNIT 23 TYPE 25  UNIT/TYPE/INPUT

  UNIT 24 TYPE 24  UNIT/TYPE/INPUT
       OUTPUT  1          25  25   1
       OUTPUT  2          25  25   2
       OUTPUT  3          25  25   3
       OUTPUT  4          25  25   4
       OUTPUT  5          25  25   5
       OUTPUT  6          25  25   6
       OUTPUT  7          25  25   7
       OUTPUT  8          25  25   8
       OUTPUT  9          25  25   9
       OUTPUT 10          25  25  10
       OUTPUT 11          25  25  11
       OUTPUT 12          25  25  12
       OUTPUT 13          25  25  13
       OUTPUT 14          25  25  14
       OUTPUT 15          25  25  15
       OUTPUT 16          25  25  16
       OUTPUT 17          25  25  17
       OUTPUT 18          25  25  18
       OUTPUT 19          25  25  19
       OUTPUT 20          25  25  20
       OUTPUT 21          25  25  21
       OUTPUT 22          25  25  22
       OUTPUT 23          25  25  23
       OUTPUT 24          25  25  24
       OUTPUT 25          25  25  25
       OUTPUT 26          25  25  26
       OUTPUT 27          25  25  27
       OUTPUT 28          25  25  28
       OUTPUT 29          25  25  29
       OUTPUT 30          25  25  30
       OUTPUT 31          25  25  31
       OUTPUT 32          25  25  32
       OUTPUT 33          25  25  33

  UNIT 25 TYPE 25  UNIT/TYPE/INPUT

  UNIT 32 TYPE 24  UNIT/TYPE/INPUT
       OUTPUT  1          26  25   1
       OUTPUT  2          26  25   2
       OUTPUT  3          26  25   3
       OUTPUT  4          26  25   4
       OUTPUT  5          26  25   5
       OUTPUT  6          26  25   6
       OUTPUT  7          26  25   7
       OUTPUT  8          26  25   8
       OUTPUT  9          26  25   9
       OUTPUT 10          26  25  10
       OUTPUT 11          26  25  11
       OUTPUT 12          26  25  12
       OUTPUT 13          26  25  13
       OUTPUT 14          26  25  14
       OUTPUT 15          26  25  15
       OUTPUT 16          26  25  16
       OUTPUT 17          26  25  17
       OUTPUT 18          26  25  18
       OUTPUT 19          26  25  19
       OUTPUT 20          26  25  20
       OUTPUT 21          26  25  21
       OUTPUT 22          26  25  22
       OUTPUT 23          26  25  23
       OUTPUT 24          26  25  24
       OUTPUT 25          26  25  25
       OUTPUT 26          26  25  26
       OUTPUT 27          26  25  27
       OUTPUT 28          26  25  28
       OUTPUT 29          26  25  29
       OUTPUT 30          26  25  30
       OUTPUT 31          26  25  31
       OUTPUT 32          26  25  32
       OUTPUT 33          26  25  33
       OUTPUT 34          26  25  34
       OUTPUT 35          26  25  35
       OUTPUT 36          26  25  36
       OUTPUT 37          26  25  37
       OUTPUT 38          26  25  38
       OUTPUT 39          26  25  39
       OUTPUT 40          26  25  40
       OUTPUT 41          26  25  41
       OUTPUT 42          26  25  42
       OUTPUT 43          26  25  43
       OUTPUT 44          26  25  44
       OUTPUT 45          26  25  45
       OUTPUT 46          26  25  46
       OUTPUT 47          26  25  47
       OUTPUT 48          26  25  48
       OUTPUT 49          26  25  49
       OUTPUT 50          26  25  50
       OUTPUT 51          26  25  51
       OUTPUT 52          26  25  52
       OUTPUT 53          26  25  53
       OUTPUT 54          26  25  54
       OUTPUT 55          26  25  55
       OUTPUT 56          26  25  56
       OUTPUT 57          26  25  57
       OUTPUT 58          26  25  58
       OUTPUT 59          26  25  59
       OUTPUT 60          26  25  60
       OUTPUT 61          26  25  61
       OUTPUT 62          26  25  62
       OUTPUT 63          26  25  63
       OUTPUT 64          26  25  64
       OUTPUT 65          26  25  65
       OUTPUT 66          26  25  66

  UNIT 26 TYPE 25  UNIT/TYPE/INPUT

  EQUATIONS        UNIT/TYPE/INPUT
       I_LENGTH                       7 229   1
       HTF_REC_OUT                    6 232   3
       C_DNI                          6 232   9
                        4 251   1
                       15  25   3
                       22  24   1
                       24  24   1
                       32  24   3
       C_WSPD                        11 221   1
                       15  25   2
                       32  24   2
       C_DB                           6 232  11
                        4 251   7
                        5 224   7
                       15  25   1
                       32  24   1
       C_PRES                         6 232   6
                        5 224   8
       C_DP                           6 232   8
       C_WB                           5 224   4
                       15  25   4
                       32  24   4
       C_RH                           5 224  10
       HOUR_DAY                       6 232   7
       C_AZI                         11 221   4
                        6 232   1
                       15  25   6
                       32  24   6
       C_ZEN                         11 221   3
                        6 232   2
                       15  25   7
                       32  24   7
       DNIFC                          4 251  10
       P_HTF                          6 232   5
       E_NET                         15  25  36
                       22  24  19
                       24  24  19
                       32  24  36
       PAR_TOT                       15  25  35
                       22  24  18
                       24  24  18
                       32  24  35
       W_FALL1                       15  25  54
                       22  24  23
                       24  24  23
                       32  24  54
       W_FALL2                       15  25  55
                       22  24  24
                       24  24  24
                       32  24  55
       W_FALL3                       15  25  56
                       22  24  25
                       24  24  25
                       32  24  56
       W_FALL4                       15  25  57
                       22  24  26
                       24  24  26
                       32  24  57
       W_FALL5                       15  25  58
                       22  24  27
                       24  24  27
                       32  24  58
       W_FALL7                       15  25  59
                       22  24  28
                       24  24  28
                       32  24  59
       W_FALL8                       15  25  60
                       22  24  29
                       24  24  29
                       32  24  60
       W_FALL9                       15  25  61
                       22  24  30
                       24  24  30
                       32  24  61
       Q_TO_TES                      15  25  51
                       22  24  31
                       24  24  31
                       32  24  51
       Q_FROM_TES                    15  25  52
                       22  24  32
                       24  24  32
                       32  24  52
       Q_TO_PB                       15  25  53
                       22  24  33
                       24  24  33
                       32  24  53

     DIFFERENTIAL EQUATIONS SOLVED BY MODIFIED EULER   
 
*** Warning at time       :         0.000000
    Generated by Unit     : Not applicable or not available
    Generated by Type     : Not applicable or not available
    TRNSYS Message    443 : The file containing the TRNSYS dimensions and unit conversions (UNITS.LAB) could not be found or is empty.  Unit conversions will not be done and output units will not be printed to the output files.
    Reported information  : Could not find "units.lab"
 

*** The TRNSYS components will be called in the following order:
      Unit #    3   Type #   15
      Unit #    8   Type #    9
      Unit #    7   Type #  229
      Unit #   11   Type #  221
      Unit #    6   Type #  232
      Unit #    4   Type #  251
      Unit #    5   Type #  224
      Unit #   21   Type #  228
      Unit #   22   Type #   24
      Unit #   24   Type #   24
      Unit #   32   Type #   24
      Unit #   15   Type #   25
      Unit #   23   Type #   25
      Unit #   25   Type #   25
      Unit #   26   Type #   25

 *TRACE*  UNIT   4  TYPE 251  AT TIME   6.6400000000000000E+02  ITERATION   31  CALL    1673  ITERATIVE CALL
 P  9.5000000000000000E+01  6.0000000000000000E+00  9.0000000000000000E+00  0.0000000000000000E+00  0.0000000000000000E+00
 P  0.0000000000000000E+00  0.0000000000000000E+00  2.7058823529411762E+02  9.0000000000000002E-01  5.7400000000000000E+02
 P  1.7000000000000000E+01  2.2659500000000003E+03  5.7400000000000000E+02  2.9000000000000000E+02  7.5531800000000003E+03
 P  2.0000000000000000E+01  1.0000000000000000E+00  4.0000000000000002E-01  1.0000000000000000E+00  2.8000000000000000E+02
 P  5.0000000000000000E+02  3.0000000000000000E+01  9.8999999999999999E-01  1.7000000000000000E+01  2.9000000000000000E+02
 P  5.7400000000000000E+02  2.7058823529411762E+02  1.1500000000000000E+02  1.0500000000000000E+00  2.5000000000000000E-01
 P  1.9000013043478265E+00  5.5000000000000004E-01  1.5000000000000002E-01  0.0000000000000000E+00  0.0000000000000000E+00
 P  0.0000000000000000E+00  0.0000000000000000E+00  0.0000000000000000E+00  0.0000000000000000E+00  0.0000000000000000E+00
 P  0.0000000000000000E+00  0.0000000000000000E+00  0.0000000000000000E+00  0.0000000000000000E+00  5.0000000000000000E+02
 P  1.0000000000000000E+00  1.0000000000000000E+00  1.0000000000000000E+00  9.5000000000000000E+02  0.0000000000000000E+00
 P  2.0000000000000001E-01  2.0000000000000000E+00  2.0000000000000000E+00  1.0000000000000000E+00  8.0000000000000000E+00
 P  2.5000000000000000E-01  5.0000000000000000E+02  4.0000000000000000E+02  1.0000000000000000E+02  7.0000000000000007E-01
 P  0.0000000000000000E+00  0.0000000000000000E+00  1.0500000000000000E+00  0.0000000000000000E+00  0.0000000000000000E+00
 P  1.0000000000000000E+00  0.0000000000000000E+00  0.0000000000000000E+00  1.0000000000000000E+00  0.0000000000000000E+00
 P  0.0000000000000000E+00  1.0000000000000000E+00  0.0000000000000000E+00  0.0000000000000000E+00  1.0000000000000000E+00
 P  0.0000000000000000E+00  0.0000000000000000E+00  1.0000000000000000E+00  0.0000000000000000E+00  0.0000000000000000E+00
 P  1.0000000000000000E+00  0.0000000000000000E+00  0.0000000000000000E+00  1.0000000000000000E+00  0.0000000000000000E+00
 P  0.0000000000000000E+00  1.0000000000000000E+00  0.0000000000000000E+00  0.0000000000000000E+00  0.0000000000000000E+00
 P  0.0000000000000000E+00  0.0000000000000000E+00  0.0000000000000000E+00  0.0000000000000000E+00  0.0000000000000000E+00
 P  0.0000000000000000E+00
 I  1.2348000000000000E+03  5.0000000000000000E+00  1.0839122650445716E+06  2.3104262096398431E+06  5.7400000000000000E+02
 I  2.9000000000000000E+02  1.5750000000000000E+01  0.0000000000000000E+00  0.0000000000000000E+00  1.6890473026458267E+01
 I  0.0000000000000000E+00  0.0000000000000000E+00  0.0000000000000000E+00  0.0000000000000000E+00  0.0000000000000000E+00
 I  0.0000000000000000E+00  0.0000000000000000E+00
 O  1.0000000000000000E+00  2.0000000000000000E+00  3.0000000000000000E+00  0.0000000000000000E+00  2.9000000000000000E+02
 O  2.8579815752414459E+02 -1.0839122650445716E+06 -1.0839122650445716E+06  5.6067223835095967E+02  2.8579815752414459E+02
 O  5.7400000000000000E+02  2.9000000000000000E+02  1.0045479697587585E+03  5.6519333980770296E+02  6.4079398784058649E+03
 O  2.8577987448942383E+02  0.0000000000000000E+00  0.0000000000000000E+00  0.0000000000000000E+00  0.0000000000000000E+00
 O  7.4124878481646238E+03  0.0000000000000000E+00  1.7374715583764790E+06  1.2202245297120394E+07  1.3939716855496872E+07
 O  1.6559770715958735E-01  0.0000000000000000E+00  0.0000000000000000E+00  0.0000000000000000E+00  0.0000000000000000E+00
 O  5.7225746372124520E-01  1.3070909881737327E+02  1.0000000000000000E+00  0.0000000000000000E+00  0.0000000000000000E+00
 O  0.0000000000000000E+00  0.0000000000000000E+00  0.0000000000000000E+00

 *TRACE*  UNIT   4  TYPE 251  AT TIME   6.6400000000000000E+02  ITERATION   32  CALL    1674  ITERATIVE CALL
 P  9.5000000000000000E+01  6.0000000000000000E+00  9.0000000000000000E+00  0.0000000000000000E+00  0.0000000000000000E+00
 P  0.0000000000000000E+00  0.0000000000000000E+00  2.7058823529411762E+02  9.0000000000000002E-01  5.7400000000000000E+02
 P  1.7000000000000000E+01  2.2659500000000003E+03  5.7400000000000000E+02  2.9000000000000000E+02  7.5531800000000003E+03
 P  2.0000000000000000E+01  1.0000000000000000E+00  4.0000000000000002E-01  1.0000000000000000E+00  2.8000000000000000E+02
 P  5.0000000000000000E+02  3.0000000000000000E+01  9.8999999999999999E-01  1.7000000000000000E+01  2.9000000000000000E+02
 P  5.7400000000000000E+02  2.7058823529411762E+02  1.1500000000000000E+02  1.0500000000000000E+00  2.5000000000000000E-01
 P  1.9000013043478265E+00  5.5000000000000004E-01  1.5000000000000002E-01  0.0000000000000000E+00  0.0000000000000000E+00
 P  0.0000000000000000E+00  0.0000000000000000E+00  0.0000000000000000E+00  0.0000000000000000E+00  0.0000000000000000E+00
 P  0.0000000000000000E+00  0.0000000000000000E+00  0.0000000000000000E+00  0.0000000000000000E+00  5.0000000000000000E+02
 P  1.0000000000000000E+00  1.0000000000000000E+00  1.0000000000000000E+00  9.5000000000000000E+02  0.0000000000000000E+00
 P  2.0000000000000001E-01  2.0000000000000000E+00  2.0000000000000000E+00  1.0000000000000000E+00  8.0000000000000000E+00
 P  2.5000000000000000E-01  5.0000000000000000E+02  4.0000000000000000E+02  1.0000000000000000E+02  7.0000000000000007E-01
 P  0.0000000000000000E+00  0.0000000000000000E+00  1.0500000000000000E+00  0.0000000000000000E+00  0.0000000000000000E+00
 P  1.0000000000000000E+00  0.0000000000000000E+00  0.0000000000000000E+00  1.0000000000000000E+00  0.0000000000000000E+00
 P  0.0000000000000000E+00  1.0000000000000000E+00  0.0000000000000000E+00  0.0000000000000000E+00  1.0000000000000000E+00
 P  0.0000000000000000E+00  0.0000000000000000E+00  1.0000000000000000E+00  0.0000000000000000E+00  0.0000000000000000E+00
 P  1.0000000000000000E+00  0.0000000000000000E+00  0.0000000000000000E+00  1.0000000000000000E+00  0.0000000000000000E+00
 P  0.0000000000000000E+00  1.0000000000000000E+00  0.0000000000000000E+00  0.0000000000000000E+00  0.0000000000000000E+00
 P  0.0000000000000000E+00  0.0000000000000000E+00  0.0000000000000000E+00  0.0000000000000000E+00  0.0000000000000000E+00
 P  0.0000000000000000E+00
 I  1.2348000000000000E+03  5.0000000000000000E+00  0.0000000000000000E+00  2.3104262096398431E+06  2.9000000000000000E+02
 I  2.9000000000000000E+02  1.5750000000000000E+01  0.0000000000000000E+00  0.0000000000000000E+00  1.6890473026458267E+01
 I  0.0000000000000000E+00  0.0000000000000000E+00  0.0000000000000000E+00  0.0000000000000000E+00  0.0000000000000000E+00
 I  0.0000000000000000E+00  0.0000000000000000E+00
 O  1.0000000000000000E+00  2.0000000000000000E+00  3.0000000000000000E+00  0.0000000000000000E+00  2.9000000000000000E+02
 O  2.9000000000000000E+02  0.0000000000000000E+00  0.0000000000000000E+00  5.5129136218851670E+02  2.8579864763821081E+02
 O  2.9000000000000000E+02  2.9000000000000000E+02  3.7786613430783876E+02  5.5061153377418157E+02  6.9771502539349849E+03
 O  2.8578136599455127E+02  0.0000000000000000E+00  0.0000000000000000E+00  0.0000000000000000E+00  0.0000000000000000E+00
 O  7.3550163882428233E+03  0.0000000000000000E+00  6.5355929333190736E+05  1.3286157562164966E+07  1.3939716855496874E+07
 O  0.0000000000000000E+00  0.0000000000000000E+00  0.0000000000000000E+00  0.0000000000000000E+00  0.0000000000000000E+00
 O  5.6567072639196325E-01  0.0000000000000000E+00  1.0000000000000000E+00  0.0000000000000000E+00  0.0000000000000000E+00
 O  0.0000000000000000E+00  0.0000000000000000E+00  0.0000000000000000E+00
 
*** Warning at time       :       664.000000
    Generated by Unit     : Not applicable or not available
    Generated by Type     : Not applicable or not available
    TRNSYS Message    441 : The inputs to the listed units have not converged at this timestep. The values at the last iteration will be used and the simulation will proceed.
    Reported information  : UNITS: 6   4  21
 


*********************************************************************************************************
The Following UNIT Numbers, TYPE Numbers, and Logical Units Were Used in the Supplied TRNSYS Input File: 
                         3             9                 4
                         4            15                 6
                         5            24                 9
                         6            25                10
                         7           221                13
                         8           224                30
                        11           228                53
                        15           229                54
                        21           232                57
                        22           251                58
                        23                              60
                        24                              61
                        25                              65
                        26                              95
                        32                              96


*********************************************************************************************************
Total TRNSYS Calculation Time:                         28.8800 Seconds
