            TRNSYS - the TRaNsient SYstem Simulation program

   The Solar Energy Lab at the University of Wisconsin - Madison, USA
Le Centre Scientifique et Technique du Batiment, Sophia Antipolis, France
           Transsolar Energietechnik GmBH, Stuttgart, Germany
        Thermal Energy System Specialists, Madison Wisconsin, USA

                           Release 16.xx.xxxx

Listing file for: "C:\Users\tneises\Documents\Projects\ssc\tcs\typelib\Physical_Trough_Ty\trnsys.dtr.trd"
 
*** Notice at time        :         0.000000
    Generated by Unit     : Not applicable or not available
    Generated by Type     : Not applicable or not available
    Message               : The TRNSYS Executable (TRNExe.exe) and main DLL (TRNDll.dll) are located in "."
 

 *** Pre-Processing the TRNSYS EQUATIONs and CONSTANTs to check for fatal errors.

 *** Pre-Processing of EQUATIONs and CONSTANTs completed with no fatal errors found.

 *** Evaluating the EQUATIONs and CONSTANTs to determine their initial values.

 *** Finished evaluating the EQUATIONs and CONSTANTs and ready to begin processing the remainder of the TRNSYS input file.

  VERSION        16
*****************************************************************                                                                                                                                                                                                                                                                                                                                                                                                                                                                                                                                                                                                                                                                                                                                                                                                                                                                                                                                                                       
*** TRNSYS input file generated by samsim 3.0.1                                                                                                                                                                                                                                                                                                                                                                                                                                                                                                                                                                                                                                                                                                                                                                                                                                                                                                                                                                                         
*** DECK C:\SAM\2013.9.20/exelib/trnsys/decks/csp_dtr.trdsrc                                                                                                                                                                                                                                                                                                                                                                                                                                                                                                                                                                                                                                                                                                                                                                                                                                                                                                                                                                            
*** Copyright (c) 2010 National Renewable Energy Laboratory                                                                                                                                                                                                                                                                                                                                                                                                                                                                                                                                                                                                                                                                                                                                                                                                                                                                                                                                                                             
*****************************************************************                                                                                                                                                                                                                                                                                                                                                                                                                                                                                                                                                                                                                                                                                                                                                                                                                                                                                                                                                                       
*** BEGIN INCLUDE SECTION ***                                                                                                                                                                                                                                                                                                                                                                                                                                                                                                                                                                                                                                                                                                                                                                                                                                                                                                                                                                                                           
  ASSIGN C:\SAM\2013.9.20/weather/AZ Tucson.tm2   13
  ASSIGN C:\Users\tneises\Documents\Projects\ssc\tcs\typelib\Physical_Trough_Ty/touperiod.in   39
  ASSIGN C:\Users\tneises\Documents\Projects\ssc\tcs\typelib\Physical_Trough_Ty/step.out   36
  ASSIGN C:\Users\tneises\Documents\Projects\ssc\tcs\typelib\Physical_Trough_Ty/warnings.out   96
  ASSIGN C:\Users\tneises\Documents\Projects\ssc\tcs\typelib\Physical_Trough_Ty/fluidprop.dat   95
  ASSIGN C:\Users\tneises\Documents\Projects\ssc\tcs\typelib\Physical_Trough_Ty/sysgeom.in   45
  ASSIGN C:\Users\tneises\Documents\Projects\ssc\tcs\typelib\Physical_Trough_Ty/dtr.hourly.out   48
  ASSIGN C:\Users\tneises\Documents\Projects\ssc\tcs\typelib\Physical_Trough_Ty/dtr.monthly.out   25
  ASSIGN C:\Users\tneises\Documents\Projects\ssc\tcs\typelib\Physical_Trough_Ty/dtr.annual.out   40
  ASSIGN C:\Users\tneises\Documents\Projects\ssc\tcs\typelib\Physical_Trough_Ty/header_diam.out   55
  ASSIGN C:\Users\tneises\Documents\Projects\ssc\tcs\typelib\Physical_Trough_Ty/pb_coeff.in   65
  ASSIGN C:\Users\tneises\Documents\Projects\ssc\tcs\typelib\Physical_Trough_Ty/energy.out   67

  EQUATIONS   9
     I_MONTH= 0
     I_DAY1= 1
     I_DAY=I_MONTH/24+I_DAY1
     I_LENGTH= 365
     WEEKS=I_LENGTH/7.
     START=1.000000000000000
     STOP=8760
     STEP=1.000000000000000
     dispswch=-1

  CONSTANTS   4
     TRAKMODE = 3
     WFType = 2
     TILT = 0
     AZIMUTHO = 0
*--- Type250 parameters ---                                                                                                                                                                                                                                                                                                                                                                                                                                                                                                                                                                                                                                                                                                                                                                                                                                                                                                                                                                                                             

  CONSTANTS   6
     nSCA = 8
     nHCEt = 4
     nColt = 4
     nHCEVar = 4
     nLoops = 198
     pi = 3.1415926

  CONSTANTS  30
     eta_pump = 0.85
     HDR_rough = 4.57e-005
     latitude = 32.1167
     longitude = -110.933
     timezone = -7
     theta_stow = 170
     theta_dep = 10
     Row_Distance = 15
     FieldConfig = 2
     T_startup = 300
     pb_rated_cap = 111
     m_dot_htfmin = 1
     m_dot_htfmax = 12
     T_loop_in_des = 293
     T_loop_out = 391
     Fluid = 21
     T_field_ini = 150
     LU_dat = 45
     LU_FL = 95
     T_fp = 150
     I_bn_des = 950
     V_hdr_max = 3
     V_hdr_min = 2
     fthrok = 1
     fthrctrl = 2
     ColTilt = 0
     ColAz = 0
     mc_bal_hot = 0.2
     mc_bal_cold = 0.2
     mc_bal_sca = 4.5
*--- Type251 parameters ---                                                                                                                                                                                                                                                                                                                                                                                                                                                                                                                                                                                                                                                                                                                                                                                                                                                                                                                                                                                                             

  CONSTANTS  33
     TSHOURS = 6
     NUMTOU = 9
     fossil_mode = 1
     is_hx = 1
     dT_hot = 5
     dT_cold = 7
     hx_config = 2
     q_max_aux = 294.118
     LHV_eff = 0.9
     T_set_aux = 391
     store_fluid = 18
     V_tank_hot0 = 1313.43
     T_tank_hot0 = 300
     T_tank_cold0 = 300
     vol_tank = 26268.7
     h_tank = 20
     h_tank_min = 1
     u_tank = 0.4
     tank_pairs = 1
     cold_tank_Thtr = 250
     hot_tank_Thtr = 365
     tank_max_heat = 25
     eta_heater_tank = 0.98
     field_fluid = 21
     T_field_in_des = 293
     T_field_out_des = 391
     q_pb_design = 294.118
     W_pb_design = 111
     cycle_max_fraction = 1.05
     cycle_cutoff_frac = 0.25
     solarm = 2
     min_cond_pres = 1.25
     hr_pl_nlev = 2

  CONSTANTS  36
     TSLOGIC_0 = 0
     TSLOGIC_1 = 0
     TSLOGIC_2 = 1
     TSLOGIC_3 = 0
     TSLOGIC_4 = 0
     TSLOGIC_5 = 1
     TSLOGIC_6 = 0
     TSLOGIC_7 = 0
     TSLOGIC_8 = 1
     TSLOGIC_9 = 0
     TSLOGIC_10 = 0
     TSLOGIC_11 = 1
     TSLOGIC_12 = 0
     TSLOGIC_13 = 0
     TSLOGIC_14 = 1
     TSLOGIC_15 = 0
     TSLOGIC_16 = 0
     TSLOGIC_17 = 1
     TSLOGIC_18 = 0
     TSLOGIC_19 = 0
     TSLOGIC_20 = 1
     TSLOGIC_21 = 0
     TSLOGIC_22 = 0
     TSLOGIC_23 = 1
     TSLOGIC_24 = 0
     TSLOGIC_25 = 0
     TSLOGIC_26 = 1
     FFRAC_0 = 0
     FFRAC_1 = 0
     FFRAC_2 = 0
     FFRAC_3 = 0
     FFRAC_4 = 0
     FFRAC_5 = 0
     FFRAC_6 = 0
     FFRAC_7 = 0
     FFRAC_8 = 0

  CONSTANTS  19
     tech_type = 2
     LU_pb = 65
     T_standby = 2
     P_ref = 111
     eta_ref = 0.3774
     T_htf_hot_ref = 391
     T_htf_cold_ref = 293
     HTF = 21
     q_sby_frac = 0.2
     P_boil = 100
     startup_time = 0.5
     startup_frac = 0.2
     pb_bd_frac = 0.02
     T_amb_des = 20
     dT_cw_ref = 10
     Cool_type = 1
     T_approach = 5
     T_ITD_des = 16
     P_cond_ratio = 1.0028

  CONSTANTS  15
     Pipe_hl_coef = 0.45
     SCA_drives_elec = 125
     PB_pump_coef = 0.55
     TES_pump_coef = 0.15
     PB_fixed_par = 0.0055
     BOP_parVal = 0
     BOP_parPF = 1
     BOP_par0 = 0.483
     BOP_par1 = 0.517
     BOP_par2 = 0
     Aux_parVal = 0.02273
     Aux_parPF = 1
     Aur_par0 = 0.483
     Aur_par1 = 0.517
     Aur_par2 = 0

  CONSTANTS   9
     HC_LOGIC0 = 0
     HC_LOGIC1 = 0
     HC_LOGIC2 = 0
     HC_LOGIC3 = 0
     HC_LOGIC4 = 0
     HC_LOGIC5 = 0
     HC_LOGIC6 = 0
     HC_LOGIC7 = 0
     HC_LOGIC8 = 0
*########################################################################                                                                                                                                                                                                                                                                                                                                                                                                                                                                                                                                                                                                                                                                                                                                                                                                                                                                                                                                                               

  EQUATIONS   6
!(1=GHI, 2=DNI, 3=DHI)                                                                                                                                                                                                                                                                                                                                                                                                                                                                                                                                                                                                                                                                                                                                                                                                                                                                                                                                                                                                 
     fc_dni_mode = 2
!Number of hours ahead to forecast solar resource                                                                                                                                                                                                                                                                                                                                                                                                                                                                                                                                                                                                                                                                                                                                                                                                                                                                                                                                                                          
     fc_hours = 3
!Forecasting enabled?                                                                                                                                                                                                                                                                                                                                                                                                                                                                                                                                                                                                                                                                                                                                                                                                                                                                                                                                                                                                        
     fc_on = 0
!Acceptance testing mode active? (1=yes)                                                                                                                                                                                                                                                                                                                                                                                                                                                                                                                                                                                                                                                                                                                                                                                                                                                                                                                                                                               
     accept_mode = 0
!If accept_mode==1, initialize solar field?                                                                                                                                                                                                                                                                                                                                                                                                                                                                                                                                                                                                                                                                                                                                                                                                                                                                                                                                                                            
     accept_init = 0
     accept_loc = 0
*########################################################################                                                                                                                                                                                                                                                                                                                                                                                                                                                                                                                                                                                                                                                                                                                                                                                                                                                                                                                                                               
! Start time    End time        Time step                                                                                                                                                                                                                                                                                                                                                                                                                                                                                                                                                                                                                                                                                                                                                                                                                                                                                                                                                       

  SIMULATION         1.0000000000000000E+00    8.7600000000000000E+03    1.0000000000000000E+00
! Integration    Convergence                                                                                                                                                                                                                                                                                                                                                                                                                                                                                                                                                                                                                                                                                                                                                                                                                                                                                                                                                                   

  TOLERANCES         1.0000000000000002E-03    5.0000000000000012E-04
! Max iterations        Max warnings    Trace limit                                                                                                                                                                                                                                                                                                                                                                                                                                                                                                                                                                                                                                                                                                                                                                                                                                                                                                                                            

  LIMITS        30       400        31
! TRNSYS numerical integration solver method                                                                                                                                                                                                                                                                                                                                                                                                                                                                                                                                                                                                                                                                                                                                                                                                                                                                                                                                                    

  DFQ   1
! TRNSYS output file width, number of characters                                                                                                                                                                                                                                                                                                                                                                                                                                                                                                                                                                                                                                                                                                                                                                                                                                                                                                                                                

  WIDTH    80
! NOLIST statement                                                                                                                                                                                                                                                                                                                                                                                                                                                                                                                                                                                                                                                                                                                                                                                                                                                                                                                                                                              

  LIST
! MAP statement                                                                                                                                                                                                                                                                                                                                                                                                                                                                                                                                                                                                                                                                                                                                                                                                                                                                                                                                                                                 

  MAP
! Solver statement      Minimum relaxation factor       Maximum relaxation factor                                                                                                                                                                                                                                                                                                                                                                                                                                                                                                                                                                                                                                                                                                                                                                                                                                                                                                               

  SOLVER  0
    1.000000000000000    
    1.000000000000000    
! Nan DEBUG statement                                                                                                                                                                                                                                                                                                                                                                                                                                                                                                                                                                                                                                                                                                                                                                                                                                                                                                                                                                           

  NAN_CHECK   0
! Overwrite DEBUG statement                                                                                                                                                                                                                                                                                                                                                                                                                                                                                                                                                                                                                                                                                                                                                                                                                                                                                                                                                                     

  OVERWRITE_CHECK   0
! EQUATION SOLVER statement                                                                                                                                                                                                                                                                                                                                                                                                                                                                                                                                                                                                                                                                                                                                                                                                                                                                                                                                                                     

  EQUATION SOLVING METHOD         0

  UNIT   6     TYPE  15                                                   
       PARAMETERS  10
! 1 File Type                                                                                                                                                                                                                                                                                                                                                                                                                                                                                                                                                                                                                                                                                                                                                                                                                                                                                                                                                                                                                  
! 2 Logical unit                                                                                                                                                                                                                                                                                                                                                                                                                                                                                                                                                                                                                                                                                                                                                                                                                                                                                                                                                                                                               
! 3 Tilted Surface Radiation Mode                                                                                                                                                                                                                                                                                                                                                                                                                                                                                                                                                                                                                                                                                                                                                                                                                                                                                                                                                                                              
! 4 Ground reflectance - no snow                                                                                                                                                                                                                                                                                                                                                                                                                                                                                                                                                                                                                                                                                                                                                                                                                                                                                                                                                                                               
! 5 Ground reflectance - snow cover                                                                                                                                                                                                                                                                                                                                                                                                                                                                                                                                                                                                                                                                                                                                                                                                                                                                                                                                                                                            
! 6 RAD_IN_MODE Total and DNI                                                                                                                                                                                                                                                                                                                                                                                                                                                                                                                                                                                                                                                                                                                                                                                                                                                                                                                                                                                                       
! 7 Number of surfaces                                                                                                                                                                                                                                                                                                                                                                                                                                                                                                                                                                                                                                                                                                                                                                                                                                                                                                                                                                                                         
! 8 Tracking mode                                                                                                                                                                                                                                                                                                                                                                                                                                                                                                                                                                                                                                                                                                                                                                                                                                                                                                                                                                                                              
! 9 Slope of surface                                                                                                                                                                                                                                                                                                                                                                                                                                                                                                                                                                                                                                                                                                                                                                                                                                                                                                                                                                                                              
! 10 Azimuth of surface                                                                                                                                                                                                                                                                                                                                                                                                                                                                                                                                                                                                                                                                                                                                                                                                                                                                                                                                                                                                        
       2.0000000000000000E+00    1.3000000000000000E+01    3.0000000000000000E+00    2.0000000000000001E-01    7.0000000000000007E-01
       1.0000000000000000E+00    1.0000000000000000E+00    3.0000000000000000E+00    0.0000000000000000E+00    0.0000000000000000E+00
****Assign weather data variables and perform any required unit conversions****                                                                                                                                                                                                                                                                                                                                                                                                                                                                                                                                                                                                                                                                                                                                                                                                                                                                                                                                                         

  EQUATIONS  12
! DNI                                                                                                                                                                                                                                                                                                                                                                                                                                                                                                                                                                                                                                                                                                                                                                                                                                                                                                                                                                                                                  
     c_DNI = [6,15]
! wind speed                                                                                                                                                                                                                                                                                                                                                                                                                                                                                                                                                                                                                                                                                                                                                                                                                                                                                                                                                                                                           
     c_wspd = [6,8]
! dry bulb                                                                                                                                                                                                                                                                                                                                                                                                                                                                                                                                                                                                                                                                                                                                                                                                                                                                                                                                                                                                               
     c_db = [6,1]
! atmospheric pressure -> convert to atm                                                                                                                                                                                                                                                                                                                                                                                                                                                                                                                                                                                                                                                                                                                                                                                                                                                                                                                                                                              
     c_pres = [6,10]
! dew point                                                                                                                                                                                                                                                                                                                                                                                                                                                                                                                                                                                                                                                                                                                                                                                                                                                                                                                                                                                                              
     c_dp = [6,2]
! wet bulb temperature                                                                                                                                                                                                                                                                                                                                                                                                                                                                                                                                                                                                                                                                                                                                                                                                                                                                                                                                                                                                   
     c_wb = [6,3]
     c_rh = [6,7]/100.
     hour_day = [6,56]
!This convention is required for Type16                                                                                                                                                                                                                                                                                                                                                                                                                                                                                                                                                                                                                                                                                                                                                                                                                                                                                                                                                                 
     SHIFT = longitude - timezone*15
     c_azi = [6,17]
     c_zen = [6,16]
!For this case, indicate the solar elevation angle instead of DNI fc                                                                                                                                                                                                                                                                                                                                                                                                                                                                                                                                                                                                                                                                                                                                                                                                                                                                                                                                                 
     dnifc = 90.-c_zen
*******************************************************************************                                                                                                                                                                                                                                                                                                                                                                                                                                                                                                                                                                                                                                                                                                                                                                                                                                                                                                                                                         
* Model HTF Prop1 (Type 229)                                                                                                                                                                                                                                                                                                                                                                                                                                                                                                                                                                                                                                                                                                                                                                                                                                                                                                                                                                                                            

  UNIT   7     TYPE 229     Prop1                                         
       PARAMETERS   3
! 1 Fluid number                                                                                                                                                                                                                                                                                                                                                                                                                                                                                                                                                                                                                                                                                                                                                                                                                                                                                                                                                                                                                    
! 2 Fluid file logical number                                                                                                                                                                                                                                                                                                                                                                                                                                                                                                                                                                                                                                                                                                                                                                                                                                                                                                                                                                                                       
! 3 Fluid error file logical number                                                                                                                                                                                                                                                                                                                                                                                                                                                                                                                                                                                                                                                                                                                                                                                                                                                                                                                                                                                                 
       2.0000000000000000E+01    9.5000000000000000E+01    9.6000000000000000E+01
       INPUTS    1
! HotTank:Fluid temperature ->Temperature                                                                                                                                                                                                                                                                                                                                                                                                                                                                                                                                                                                                                                                                                                                                                                                                                                                                                                                                                                                    
       I_LENGTH            
*** INITIAL INPUT VALUES                                                                                                                                                                                                                                                                                                                                                                                                                                                                                                                                                                                                                                                                                                                                                                                                                                                                                                                                                                                                                
       3.6500000000000000E+02
*** USER VARIABLES ***                                                                                                                                                                                                                                                                                                                                                                                                                                                                                                                                                                                                                                                                                                                                                                                                                                                                                                                                                                                                                  

  CONSTANTS  10
     UDV1 = 0
     UDV2 = 0
     UDV3 = 0
     UDV4 = 0
     UDV5 = 0
     UDV6 = 0
     UDV7 = 0
     UDV8 = 0
     UDV9 = 0
     UDV10 = 0
*** END INCLUDE SECTION ***                                                                                                                                                                                                                                                                                                                                                                                                                                                                                                                                                                                                                                                                                                                                                                                                                                                                                                                                                                                                             
*** BEGIN DECK ***                                                                                                                                                                                                                                                                                                                                                                                                                                                                                                                                                                                                                                                                                                                                                                                                                                                                                                                                                                                                                      
*---------Common for both weather file configurations starting here---------                                                                                                                                                                                                                                                                                                                                                                                                                                                                                                                                                                                                                                                                                                                                                                                                                                                                                                                                                            
* Model "TOUPERiod" (Type 9)                                                                                                                                                                                                                                                                                                                                                                                                                                                                                                                                                                                                                                                                                                                                                                                                                                                                                                                                                                                                            
*|*                                                                                                                                                                                                                                                                                                                                                                                                                                                                                                                                                                                                                                                                                                                                                                                                                                                                                                                                                                                                                                     
*|* *** Model TOUPERiod (Type 9, Unit 8)                                                                                                                                                                                                                                                                                                                                                                                                                                                                                                                                                                                                                                                                                                                                                                                                                                                                                                                                                                                                
*|*                                                                                                                                                                                                                                                                                                                                                                                                                                                                                                                                                                                                                                                                                                                                                                                                                                                                                                                                                                                                                                     

  CONSTANTS   7
*|*PARAMETERS                           VALUES                  UNITS                                                                                                                                                                                                                                                                                                                                                                                                                                                                                                                                                                                                                                                                                                                                                                                                                                                                                                                                                                   
     HEADERLI=1
*|Header Lines to Skip                    |-|-|0|1|0|1000000.00000|1000                                                                                                                                                                                                                                                                                                                                                                                                                                                                                                                                                                                                                                                                                                                                                                                                                                                                                                                                                                 
     NOOFVALU=1
*|No. of values to read                   |-|-|0|1|1|98.000|1000                                                                                                                                                                                                                                                                                                                                                                                                                                                                                                                                                                                                                                                                                                                                                                                                                                                                                                                                                                        
     TIMEINTE=1.0
*|Time interval of data                   |hr|hr|0|1|0.0|1000000.00000|1000                                                                                                                                                                                                                                                                                                                                                                                                                                                                                                                                                                                                                                                                                                                                                                                                                                                                                                                                                             
     INTERPOL=-1
*|Interpolate or not?                     |-|-|0|1|-1|1.000|1000                                                                                                                                                                                                                                                                                                                                                                                                                                                                                                                                                                                                                                                                                                                                                                                                                                                                                                                                                                        
     MULTIPLI=1.0
*|Multiplication factor                   |-|-|0|1|-1000000.00000|1000000.00000|1000                                                                                                                                                                                                                                                                                                                                                                                                                                                                                                                                                                                                                                                                                                                                                                                                                                                                                                                                                    
     ADDITION=0
*|Addition factor                         |-|-|0|1|-1000000.00000|1000000.00000|1000                                                                                                                                                                                                                                                                                                                                                                                                                                                                                                                                                                                                                                                                                                                                                                                                                                                                                                                                                    
     AVERAGEO=1
*|Average or instantaneous value          |-|-|0|1|0|1.000|1000                                                                                                                                                                                                                                                                                                                                                                                                                                                                                                                                                                                                                                                                                                                                                                                                                                                                                                                                                                         

  UNIT   8     TYPE   9                                                   
*$UNIT_NAME TOUPERiod                                                                                                                                                                                                                                                                                                                                                                                                                                                                                                                                                                                                                                                                                                                                                                                                                                                                                                                                                                                                                   
*$MODEL .\Utility\Data Readers\Generic Data Files\First Line is Simulation Start\Free Format\Type9a.tmf                                                                                                                                                                                                                                                                                                                                                                                                                                                                                                                                                                                                                                                                                                                                                                                                                                                                                                                                 
*$POSITION 81 61                                                                                                                                                                                                                                                                                                                                                                                                                                                                                                                                                                                                                                                                                                                                                                                                                                                                                                                                                                                                                        
*$LAYER Weather - Data Files #                                                                                                                                                                                                                                                                                                                                                                                                                                                                                                                                                                                                                                                                                                                                                                                                                                                                                                                                                                                                          
       PARAMETERS  10
[...]
 P  1.5000000000000000E+02  4.5000000000000000E+01  9.5000000000000000E+01  1.5000000000000000E+02  9.5000000000000000E+02
 P  3.0000000000000000E+00  2.0000000000000000E+00  4.5000000000000001E-01  1.2500000000000000E+02  5.5000000000000000E+01
 P  1.0000000000000000E+00  2.0000000000000000E+00  0.0000000000000000E+00  0.0000000000000000E+00  0.0000000000000000E+00
 P  0.0000000000000000E+00  0.0000000000000000E+00  2.0000000000000000E+00  2.0000000000000001E-01  2.0000000000000001E-01
 P  4.5000000000000000E+00
 I  3.4055999999999999E+03  3.6100000000000001E+01  5.4000000000000004E+00  9.1142363681223781E-01  7.2000000000000002E+00
 I -5.9330000000000069E+00  3.0016912887399496E+02  0.0000000000000000E+00  5.7539115943070906E-01  5.5764212716797070E+00
 O  3.9091363814382203E+02  8.4938731291119829E+06  5.2790478744194445E+02  2.4904058306275626E+01  8.5062259390972130E+00
 O  0.0000000000000000E+00  3.0000000000000000E+00  3.0016928173872464E+02  7.3327843292896377E-01  9.3249390932168719E-01
 O  8.4964364693626314E+06  0.0000000000000000E+00  8.1666287999999997E+02  5.2877815616302439E+02  4.1664966557089315E+01
 O  1.1919804249947575E+01  1.8514076157913237E+02  1.8463379404569405E-01  8.8118107350959785E-01  4.0900853681216212E+01
 O  8.7444362525950012E+00  9.8837627825320962E-01  1.0036585687584878E+00  1.0000000000000000E+00  9.9675449558146056E-01
 O  9.3500395922753626E+02  8.0717021792194748E+02  8.1213656995210968E+01  5.5764213604312092E+00  3.9095650748660614E+02
 O  2.4656531043176033E+03  5.2806410222915520E+02  6.5421653389126710E-01 -1.0124808748890073E-01 -3.0707273757291120E-01
 O -4.0832082506181194E-01  1.3223909841902992E+04

 *TRACE*  UNIT   4  TYPE 251  AT TIME   4.2370000000000000E+03  ITERATION   32  CALL   20549  ITERATIVE CALL
 P  9.5000000000000000E+01  6.0000000000000000E+00  9.0000000000000000E+00  1.0000000000000000E+00  5.0000000000000000E+00
 P  7.0000000000000000E+00  2.0000000000000000E+00  2.9411799999999999E+02  9.0000000000000002E-01  3.9100000000000000E+02
 P  1.8000000000000000E+01  1.3134300000000001E+03  3.0000000000000000E+02  3.0000000000000000E+02  2.6268700000000001E+04
 P  2.0000000000000000E+01  1.0000000000000000E+00  4.0000000000000002E-01  1.0000000000000000E+00  2.5000000000000000E+02
 P  3.6500000000000000E+02  2.5000000000000000E+01  9.7999999999999998E-01  2.1000000000000000E+01  2.9300000000000000E+02
 P  3.9100000000000000E+02  2.9411799999999999E+02  1.1100000000000000E+02  1.0500000000000000E+00  2.5000000000000000E-01
 P  2.0000000000000000E+00  5.5000000000000004E-01  1.5000000000000002E-01  5.5000000000000014E-03  0.0000000000000000E+00
 P  1.0000000000000000E+00  4.8300000000000004E-01  5.1700000000000002E-01  0.0000000000000000E+00  2.2730000000000004E-02
 P  1.0000000000000000E+00  4.8300000000000004E-01  5.1700000000000002E-01  0.0000000000000000E+00  3.0000000000000000E+02
 P  1.0000000000000000E+00  1.0000000000000000E+00  8.0000000000000000E+00  9.5000000000000000E+02  0.0000000000000000E+00
 P  2.0000000000000001E-01  2.0000000000000000E+00  1.0000000000000000E+00  1.0000000000000000E+00  7.0000000000000000E+00
 P  2.5000000000000000E-01  5.0000000000000000E+02  5.0000000000000000E+02  2.0000000000000000E+03  2.0000000000000000E+00
 P  0.0000000000000000E+00  0.0000000000000000E+00  1.0000000000000000E+00  0.0000000000000000E+00  0.0000000000000000E+00
 P  1.0000000000000000E+00  0.0000000000000000E+00  0.0000000000000000E+00  1.0000000000000000E+00  0.0000000000000000E+00
 P  0.0000000000000000E+00  1.0000000000000000E+00  0.0000000000000000E+00  0.0000000000000000E+00  1.0000000000000000E+00
 P  0.0000000000000000E+00  0.0000000000000000E+00  1.0000000000000000E+00  0.0000000000000000E+00  0.0000000000000000E+00
 P  1.0000000000000000E+00  0.0000000000000000E+00  0.0000000000000000E+00  1.0000000000000000E+00  0.0000000000000000E+00
 P  0.0000000000000000E+00  1.0000000000000000E+00  0.0000000000000000E+00  0.0000000000000000E+00  0.0000000000000000E+00
 P  0.0000000000000000E+00  0.0000000000000000E+00  0.0000000000000000E+00  0.0000000000000000E+00  0.0000000000000000E+00
 P  0.0000000000000000E+00
 I  3.4055999999999999E+03  1.0000000000000000E+00  8.4938731291119829E+06  4.4893423536570575E+06  3.9091363814382203E+02
 I  2.9239754057169864E+02  3.6100000000000001E+01  4.3783519421453625E+06  0.0000000000000000E+00  8.1226592818335007E+01
 I  0.0000000000000000E+00  0.0000000000000000E+00  0.0000000000000000E+00  0.0000000000000000E+00  0.0000000000000000E+00
 I  0.0000000000000000E+00  0.0000000000000000E+00
 O  5.6974226908580894E-01  2.0000000000000000E+00  1.0000000000000000E+00  4.3799512649460528E+06  3.9091363814382203E+02
 O  3.0016743542795814E+02 -4.6211995755186370E+06 -7.4077380517172627E+06  3.8033109158143623E+02  3.0753170529945635E+02
 O  3.8591363814382203E+02  3.0056365558049276E+02  2.1212803602868935E+04  3.8537104212848089E+02  5.6628051484886810E+03
 O  3.0049367320369845E+02  0.0000000000000000E+00  0.0000000000000000E+00  0.0000000000000000E+00  0.0000000000000000E+00
 O  2.6875608751357617E+04  9.5102343084906005E-01  3.9136745532406241E+07  1.0752769507593755E+07  4.9889515039999992E+07
 O  1.6838315750036581E+00  0.0000000000000000E+00  6.1050000000000015E-01  0.0000000000000000E+00  2.9411799999999999E+02
 O  9.5311144074292642E-01  2.6510961323313217E+02  4.0000000000000000E+00  0.0000000000000000E+00  0.0000000000000000E+00
 O  0.0000000000000000E+00  0.0000000000000000E+00  0.0000000000000000E+00
 
*** Warning at time       :      4237.000000
    Generated by Unit     : Not applicable or not available
    Generated by Type     : Not applicable or not available
    TRNSYS Message    441 : The inputs to the listed units have not converged at this timestep. The values at the last iteration will be used and the simulation will proceed.
    Reported information  : UNITS: 3   4
 

 *TRACE*  UNIT   3  TYPE 250  AT TIME   4.2380000000000000E+03  ITERATION   31  CALL   21530  ITERATIVE CALL
 P  8.0000000000000000E+00  4.0000000000000000E+00  4.0000000000000000E+00  4.0000000000000000E+00  1.9800000000000000E+02
 P  1.0000000000000000E+00  8.5000000000000009E-01  4.5699998845520899E-05  3.2116700000000002E+01  1.7000000000000000E+02
 P  1.0000000000000000E+01  1.5000000000000000E+01  2.0000000000000000E+00  3.0000000000000000E+02  1.1100000000000000E+02
 P  1.0000000000000000E+00  1.2000000000000000E+01  2.9300000000000000E+02  3.9100000000000000E+02  2.1000000000000000E+01
 P  1.5000000000000000E+02  4.5000000000000000E+01  9.5000000000000000E+01  1.5000000000000000E+02  9.5000000000000000E+02
 P  3.0000000000000000E+00  2.0000000000000000E+00  4.5000000000000001E-01  1.2500000000000000E+02  5.5000000000000000E+01
 P  1.0000000000000000E+00  2.0000000000000000E+00  0.0000000000000000E+00  0.0000000000000000E+00  0.0000000000000000E+00
 P  0.0000000000000000E+00  0.0000000000000000E+00  2.0000000000000000E+00  2.0000000000000001E-01  2.0000000000000001E-01
 P  4.5000000000000000E+00
 I  3.4092000000000003E+03  3.7250000000000000E+01  6.9500000000000002E+00  9.1093017517887975E-01  6.7500000000000000E+00
 I -5.9330000000000069E+00  3.0012263625556898E+02  0.0000000000000000E+00  5.7936914248005378E-01  6.2136994989017424E+01
 O  3.9095487299038678E+02  8.7180353477888480E+06  5.4235881170600624E+02  2.6198152857617590E+01  9.1839952658966624E+00
 O  0.0000000000000000E+00  1.0000000000000000E+00  3.0012292315380273E+02  7.3556078351901544E-01  9.5318048231470931E-01
 O  8.7205476914224867E+06  0.0000000000000000E+00  8.1752616000000000E+02  5.4323022888463208E+02  4.2300892837735248E+01
 O  1.2234213932972063E+01  1.8700167445727291E+02  1.8872973549831246E-01  8.7789762037326580E-01  2.8408387656957991E+01
 O  7.6664739706506229E+00  9.9106143098688748E-01  1.0036466938791599E+00  1.0000000000000000E+00  9.9715973813612369E-01
 O  9.3853517514458247E+02  8.1021864599881519E+02  7.3414425312004880E+01  6.2136995977958421E+01  3.9099662745056582E+02
 O  2.4656451095494717E+03  5.4251510743702590E+02  6.6959099264893895E-01 -8.3986525047113098E-02 -8.8166718162311739E-02
 O -1.7215324320942482E-01  1.3223850924718228E+04

 *TRACE*  UNIT   4  TYPE 251  AT TIME   4.2380000000000000E+03  ITERATION   31  CALL   20582  ITERATIVE CALL
 P  9.5000000000000000E+01  6.0000000000000000E+00  9.0000000000000000E+00  1.0000000000000000E+00  5.0000000000000000E+00
 P  7.0000000000000000E+00  2.0000000000000000E+00  2.9411799999999999E+02  9.0000000000000002E-01  3.9100000000000000E+02
 P  1.8000000000000000E+01  1.3134300000000001E+03  3.0000000000000000E+02  3.0000000000000000E+02  2.6268700000000001E+04
 P  2.0000000000000000E+01  1.0000000000000000E+00  4.0000000000000002E-01  1.0000000000000000E+00  2.5000000000000000E+02
 P  3.6500000000000000E+02  2.5000000000000000E+01  9.7999999999999998E-01  2.1000000000000000E+01  2.9300000000000000E+02
 P  3.9100000000000000E+02  2.9411799999999999E+02  1.1100000000000000E+02  1.0500000000000000E+00  2.5000000000000000E-01
 P  2.0000000000000000E+00  5.5000000000000004E-01  1.5000000000000002E-01  5.5000000000000014E-03  0.0000000000000000E+00
 P  1.0000000000000000E+00  4.8300000000000004E-01  5.1700000000000002E-01  0.0000000000000000E+00  2.2730000000000004E-02
 P  1.0000000000000000E+00  4.8300000000000004E-01  5.1700000000000002E-01  0.0000000000000000E+00  3.0000000000000000E+02
 P  1.0000000000000000E+00  1.0000000000000000E+00  8.0000000000000000E+00  9.5000000000000000E+02  0.0000000000000000E+00
 P  2.0000000000000001E-01  2.0000000000000000E+00  1.0000000000000000E+00  1.0000000000000000E+00  7.0000000000000000E+00
 P  2.5000000000000000E-01  5.0000000000000000E+02  5.0000000000000000E+02  2.0000000000000000E+03  2.0000000000000000E+00
 P  0.0000000000000000E+00  0.0000000000000000E+00  1.0000000000000000E+00  0.0000000000000000E+00  0.0000000000000000E+00
 P  1.0000000000000000E+00  0.0000000000000000E+00  0.0000000000000000E+00  1.0000000000000000E+00  0.0000000000000000E+00
 P  0.0000000000000000E+00  1.0000000000000000E+00  0.0000000000000000E+00  0.0000000000000000E+00  1.0000000000000000E+00
 P  0.0000000000000000E+00  0.0000000000000000E+00  1.0000000000000000E+00  0.0000000000000000E+00  0.0000000000000000E+00
 P  1.0000000000000000E+00  0.0000000000000000E+00  0.0000000000000000E+00  1.0000000000000000E+00  0.0000000000000000E+00
 P  0.0000000000000000E+00  1.0000000000000000E+00  0.0000000000000000E+00  0.0000000000000000E+00  0.0000000000000000E+00
 P  0.0000000000000000E+00  0.0000000000000000E+00  0.0000000000000000E+00  0.0000000000000000E+00  0.0000000000000000E+00
 P  0.0000000000000000E+00
 I  3.4092000000000003E+03  1.0000000000000000E+00  8.7180353477888480E+06  4.4893423536570575E+06  3.9095487299038678E+02
 I  2.9241097565248845E+02  3.7250000000000000E+01  4.3789273156572524E+06  0.0000000000000000E+00  7.3448453502569549E+01
 I  0.0000000000000000E+00  0.0000000000000000E+00  0.0000000000000000E+00  0.0000000000000000E+00  0.0000000000000000E+00
 I  0.0000000000000000E+00  0.0000000000000000E+00
 O  5.6639206647571327E-01  2.0000000000000000E+00  1.0000000000000000E+00  4.3785676221304424E+06  3.9095487299038678E+02
 O  3.0012337542440810E+02 -4.6211995755186379E+06 -7.4077861787161482E+06  3.8040552978238372E+02  3.0743084253947302E+02
 O  3.8595487299038678E+02  3.0049367320369845E+02  2.5228700938926977E+04  3.8543625075299462E+02  1.7615503441901908E+03
 O  3.0033849165095796E+02  0.0000000000000000E+00  0.0000000000000000E+00  0.0000000000000000E+00  0.0000000000000000E+00
 O  2.6990251283117166E+04  9.5100784614396394E-01  4.6544531711122386E+07  3.3449833288776064E+06  4.9889515039999992E+07
 O  1.6836221904206714E+00  0.0000000000000000E+00  6.1050000000000015E-01  0.0000000000000000E+00  2.9411799999999999E+02
 O  9.4949815066875609E-01  2.6555166740713338E+02  4.0000000000000000E+00  0.0000000000000000E+00  0.0000000000000000E+00
 O  0.0000000000000000E+00  0.0000000000000000E+00  0.0000000000000000E+00

 *TRACE*  UNIT   3  TYPE 250  AT TIME   4.2380000000000000E+03  ITERATION   32  CALL   21531  ITERATIVE CALL
 P  8.0000000000000000E+00  4.0000000000000000E+00  4.0000000000000000E+00  4.0000000000000000E+00  1.9800000000000000E+02
 P  1.0000000000000000E+00  8.5000000000000009E-01  4.5699998845520899E-05  3.2116700000000002E+01  1.7000000000000000E+02
 P  1.0000000000000000E+01  1.5000000000000000E+01  2.0000000000000000E+00  3.0000000000000000E+02  1.1100000000000000E+02
 P  1.0000000000000000E+00  1.2000000000000000E+01  2.9300000000000000E+02  3.9100000000000000E+02  2.1000000000000000E+01
 P  1.5000000000000000E+02  4.5000000000000000E+01  9.5000000000000000E+01  1.5000000000000000E+02  9.5000000000000000E+02
 P  3.0000000000000000E+00  2.0000000000000000E+00  4.5000000000000001E-01  1.2500000000000000E+02  5.5000000000000000E+01
 P  1.0000000000000000E+00  2.0000000000000000E+00  0.0000000000000000E+00  0.0000000000000000E+00  0.0000000000000000E+00
 P  0.0000000000000000E+00  0.0000000000000000E+00  2.0000000000000000E+00  2.0000000000000001E-01  2.0000000000000001E-01
 P  4.5000000000000000E+00
 I  3.4092000000000003E+03  3.7250000000000000E+01  6.9500000000000002E+00  9.1093017517887975E-01  6.7500000000000000E+00
 I -5.9330000000000069E+00  3.0012337542440810E+02  0.0000000000000000E+00  5.6639206647571327E-01  6.2136994989017424E+01
 O  3.9091385042606123E+02  8.5039997102112304E+06  5.2878703941800632E+02  2.4959967939406514E+01  8.5350219059623917E+00
 O  0.0000000000000000E+00  3.0000000000000000E+00  3.0012369538718451E+02  7.3556078351901544E-01  9.3056334194811607E-01
 O  8.5063529565764293E+06  0.0000000000000000E+00  8.1752616000000000E+02  5.2964450870331268E+02  4.1993085177565291E+01
 O  1.1933716269046618E+01  1.8690831178064960E+02  1.8425154170572700E-01  8.7784163314264063E-01  4.2131649300635146E+01
 O  7.6664739706506229E+00  9.9106143098688748E-01  1.0036466938791599E+00  1.0000000000000000E+00  9.9715973813612369E-01
 O  9.3853517514458247E+02  8.1021864599881519E+02  7.3414425312004880E+01  6.2136995977958421E+01  3.9095653079006843E+02
 O  2.4655838565105769E+03  5.2893336658414921E+02  6.5282793625675539E-01 -2.6402562795816131E-01 -6.5173085231892969E-01
 O -9.1575648027709100E-01  1.3222897655641480E+04

 *TRACE*  UNIT   4  TYPE 251  AT TIME   4.2380000000000000E+03  ITERATION   32  CALL   20583  ITERATIVE CALL
 P  9.5000000000000000E+01  6.0000000000000000E+00  9.0000000000000000E+00  1.0000000000000000E+00  5.0000000000000000E+00
 P  7.0000000000000000E+00  2.0000000000000000E+00  2.9411799999999999E+02  9.0000000000000002E-01  3.9100000000000000E+02
 P  1.8000000000000000E+01  1.3134300000000001E+03  3.0000000000000000E+02  3.0000000000000000E+02  2.6268700000000001E+04
 P  2.0000000000000000E+01  1.0000000000000000E+00  4.0000000000000002E-01  1.0000000000000000E+00  2.5000000000000000E+02
 P  3.6500000000000000E+02  2.5000000000000000E+01  9.7999999999999998E-01  2.1000000000000000E+01  2.9300000000000000E+02
 P  3.9100000000000000E+02  2.9411799999999999E+02  1.1100000000000000E+02  1.0500000000000000E+00  2.5000000000000000E-01
 P  2.0000000000000000E+00  5.5000000000000004E-01  1.5000000000000002E-01  5.5000000000000014E-03  0.0000000000000000E+00
 P  1.0000000000000000E+00  4.8300000000000004E-01  5.1700000000000002E-01  0.0000000000000000E+00  2.2730000000000004E-02
 P  1.0000000000000000E+00  4.8300000000000004E-01  5.1700000000000002E-01  0.0000000000000000E+00  3.0000000000000000E+02
 P  1.0000000000000000E+00  1.0000000000000000E+00  8.0000000000000000E+00  9.5000000000000000E+02  0.0000000000000000E+00
 P  2.0000000000000001E-01  2.0000000000000000E+00  1.0000000000000000E+00  1.0000000000000000E+00  7.0000000000000000E+00
 P  2.5000000000000000E-01  5.0000000000000000E+02  5.0000000000000000E+02  2.0000000000000000E+03  2.0000000000000000E+00
 P  0.0000000000000000E+00  0.0000000000000000E+00  1.0000000000000000E+00  0.0000000000000000E+00  0.0000000000000000E+00
 P  1.0000000000000000E+00  0.0000000000000000E+00  0.0000000000000000E+00  1.0000000000000000E+00  0.0000000000000000E+00
 P  0.0000000000000000E+00  1.0000000000000000E+00  0.0000000000000000E+00  0.0000000000000000E+00  1.0000000000000000E+00
 P  0.0000000000000000E+00  0.0000000000000000E+00  1.0000000000000000E+00  0.0000000000000000E+00  0.0000000000000000E+00
 P  1.0000000000000000E+00  0.0000000000000000E+00  0.0000000000000000E+00  1.0000000000000000E+00  0.0000000000000000E+00
 P  0.0000000000000000E+00  1.0000000000000000E+00  0.0000000000000000E+00  0.0000000000000000E+00  0.0000000000000000E+00
 P  0.0000000000000000E+00  0.0000000000000000E+00  0.0000000000000000E+00  0.0000000000000000E+00  0.0000000000000000E+00
 P  0.0000000000000000E+00
 I  3.4092000000000003E+03  1.0000000000000000E+00  8.5039997102112304E+06  4.4893423536570575E+06  3.9091385042606123E+02
 I  2.9241097565248845E+02  3.7250000000000000E+01  4.3789273156572524E+06  0.0000000000000000E+00  7.3448453502569549E+01
 I  0.0000000000000000E+00  0.0000000000000000E+00  0.0000000000000000E+00  0.0000000000000000E+00  0.0000000000000000E+00
 I  0.0000000000000000E+00  0.0000000000000000E+00
 O  5.6068555817315635E-01  2.0000000000000000E+00  1.0000000000000000E+00  4.3805022491153004E+06  3.9091385042606123E+02
 O  3.0012171841391330E+02 -4.6211995755186388E+06 -7.4075310682648309E+06  3.8040207545932515E+02  3.0743084355702729E+02
 O  3.8591385042606123E+02  3.0049367320369845E+02  2.5228562660485964E+04  3.8542971943591135E+02  1.7616846916171107E+03
 O  3.0033849644059580E+02  0.0000000000000000E+00  0.0000000000000000E+00  0.0000000000000000E+00  0.0000000000000000E+00
 O  2.6990247352103077E+04  9.5101434542209029E-01  4.6544276600671068E+07  3.3452384393289238E+06  4.9889515039999992E+07
 O  1.6839071288301088E+00  0.0000000000000000E+00  6.1050000000000015E-01  0.0000000000000000E+00  2.9411799999999994E+02
 O  9.4949278724539554E-01  2.6541454221434418E+02  4.0000000000000000E+00  0.0000000000000000E+00  0.0000000000000000E+00
 O  0.0000000000000000E+00  0.0000000000000000E+00  0.0000000000000000E+00
 
*** Warning at time       :      4238.000000
    Generated by Unit     : Not applicable or not available
    Generated by Type     : Not applicable or not available
    TRNSYS Message    441 : The inputs to the listed units have not converged at this timestep. The values at the last iteration will be used and the simulation will proceed.
    Reported information  : UNITS: 3   4
 


*********************************************************************************************************
The Following UNIT Numbers, TYPE Numbers, and Logical Units Were Used in the Supplied TRNSYS Input File: 
                         3             9                 4
                         4            15                 6
                         5            24                 9
                         6            25                13
                         7           224                25
                         8           229                36
                        20           250                39
                        22           251                40
                        23                              45
                        24                              48
                        25                              55
                        26                              65
                        27                              67
                        28                              95
                                                        96


*********************************************************************************************************
Total TRNSYS Calculation Time:                        338.7400 Seconds
