            TRNSYS - the TRaNsient SYstem Simulation program

   The Solar Energy Lab at the University of Wisconsin - Madison, USA
Le Centre Scientifique et Technique du Batiment, Sophia Antipolis, France
           Transsolar Energietechnik GmBH, Stuttgart, Germany
        Thermal Energy System Specialists, Madison Wisconsin, USA

                           Release 16.xx.xxxx

Listing file for: "C:\Users\tneises\Documents\Projects\ssc\tcs\typelib\Physical_Trough_Ty\trnsys.dtr.trd"
 
*** Notice at time        :         0.000000
    Generated by Unit     : Not applicable or not available
    Generated by Type     : Not applicable or not available
    Message               : The TRNSYS Executable (TRNExe.exe) and main DLL (TRNDll.dll) are located in "."
 

 *** Pre-Processing the TRNSYS EQUATIONs and CONSTANTs to check for fatal errors.

 *** Pre-Processing of EQUATIONs and CONSTANTs completed with no fatal errors found.

 *** Evaluating the EQUATIONs and CONSTANTs to determine their initial values.

 *** Finished evaluating the EQUATIONs and CONSTANTs and ready to begin processing the remainder of the TRNSYS input file.

  VERSION        16
*****************************************************************                                                                                                                                                                                                                                                                                                                                                                                                                                                                                                                                                                                                                                                                                                                                                                                                                                                                                                                                                                       
*** TRNSYS input file generated by samsim 3.0.1                                                                                                                                                                                                                                                                                                                                                                                                                                                                                                                                                                                                                                                                                                                                                                                                                                                                                                                                                                                         
*** DECK C:\SAM\2013.9.20/exelib/trnsys/decks/csp_dtr.trdsrc                                                                                                                                                                                                                                                                                                                                                                                                                                                                                                                                                                                                                                                                                                                                                                                                                                                                                                                                                                            
*** Copyright (c) 2010 National Renewable Energy Laboratory                                                                                                                                                                                                                                                                                                                                                                                                                                                                                                                                                                                                                                                                                                                                                                                                                                                                                                                                                                             
*****************************************************************                                                                                                                                                                                                                                                                                                                                                                                                                                                                                                                                                                                                                                                                                                                                                                                                                                                                                                                                                                       
*** BEGIN INCLUDE SECTION ***                                                                                                                                                                                                                                                                                                                                                                                                                                                                                                                                                                                                                                                                                                                                                                                                                                                                                                                                                                                                           
  ASSIGN C:\SAM\2013.9.20/weather/AZ Tucson.tm2   13
  ASSIGN C:\Users\tneises\Documents\Projects\ssc\tcs\typelib\Physical_Trough_Ty/touperiod.in   39
  ASSIGN C:\Users\tneises\Documents\Projects\ssc\tcs\typelib\Physical_Trough_Ty/step.out   36
  ASSIGN C:\Users\tneises\Documents\Projects\ssc\tcs\typelib\Physical_Trough_Ty/warnings.out   96
  ASSIGN C:\Users\tneises\Documents\Projects\ssc\tcs\typelib\Physical_Trough_Ty/fluidprop.dat   95
  ASSIGN C:\Users\tneises\Documents\Projects\ssc\tcs\typelib\Physical_Trough_Ty/sysgeom.in   45
  ASSIGN C:\Users\tneises\Documents\Projects\ssc\tcs\typelib\Physical_Trough_Ty/dtr.hourly.out   48
  ASSIGN C:\Users\tneises\Documents\Projects\ssc\tcs\typelib\Physical_Trough_Ty/dtr.monthly.out   25
  ASSIGN C:\Users\tneises\Documents\Projects\ssc\tcs\typelib\Physical_Trough_Ty/dtr.annual.out   40
  ASSIGN C:\Users\tneises\Documents\Projects\ssc\tcs\typelib\Physical_Trough_Ty/header_diam.out   55
  ASSIGN C:\Users\tneises\Documents\Projects\ssc\tcs\typelib\Physical_Trough_Ty/pb_coeff.in   65
  ASSIGN C:\Users\tneises\Documents\Projects\ssc\tcs\typelib\Physical_Trough_Ty/energy.out   67

  EQUATIONS   9
     I_MONTH= 0
     I_DAY1= 1
     I_DAY=I_MONTH/24+I_DAY1
     I_LENGTH= 365
     WEEKS=I_LENGTH/7.
     START=1.000000000000000
     STOP=8760
     STEP=1.000000000000000
     dispswch=-1

  CONSTANTS   4
     TRAKMODE = 3
     WFType = 2
     TILT = 0
     AZIMUTHO = 0
*--- Type250 parameters ---                                                                                                                                                                                                                                                                                                                                                                                                                                                                                                                                                                                                                                                                                                                                                                                                                                                                                                                                                                                                             

  CONSTANTS   6
     nSCA = 8
     nHCEt = 4
     nColt = 4
     nHCEVar = 4
     nLoops = 230
     pi = 3.1415926

  CONSTANTS  30
     eta_pump = 0.85
     HDR_rough = 4.57e-005
     latitude = 32.1167
     longitude = -110.933
     timezone = -7
     theta_stow = 170
     theta_dep = 10
     Row_Distance = 15
     FieldConfig = 2
     T_startup = 300
     pb_rated_cap = 111
     m_dot_htfmin = 1
     m_dot_htfmax = 12
     T_loop_in_des = 293
     T_loop_out = 391
     Fluid = 21
     T_field_ini = 150
     LU_dat = 45
     LU_FL = 95
     T_fp = 150
     I_bn_des = 950
     V_hdr_max = 3
     V_hdr_min = 2
     fthrok = 1
     fthrctrl = 2
     ColTilt = 0
     ColAz = 0
     mc_bal_hot = 0.2
     mc_bal_cold = 0.2
     mc_bal_sca = 4.5
*--- Type251 parameters ---                                                                                                                                                                                                                                                                                                                                                                                                                                                                                                                                                                                                                                                                                                                                                                                                                                                                                                                                                                                                             

  CONSTANTS  33
     TSHOURS = 6
     NUMTOU = 9
     fossil_mode = 1
     is_hx = 1
     dT_hot = 5
     dT_cold = 7
     hx_config = 2
     q_max_aux = 294.118
     LHV_eff = 0.9
     T_set_aux = 391
     store_fluid = 18
     V_tank_hot0 = 1313.43
     T_tank_hot0 = 300
     T_tank_cold0 = 300
     vol_tank = 26268.7
     h_tank = 20
     h_tank_min = 1
     u_tank = 0.4
     tank_pairs = 1
     cold_tank_Thtr = 250
     hot_tank_Thtr = 365
     tank_max_heat = 25
     eta_heater_tank = 0.98
     field_fluid = 21
     T_field_in_des = 293
     T_field_out_des = 391
     q_pb_design = 294.118
     W_pb_design = 111
     cycle_max_fraction = 1.05
     cycle_cutoff_frac = 0.25
     solarm = 2
     min_cond_pres = 1.25
     hr_pl_nlev = 2

  CONSTANTS  36
     TSLOGIC_0 = 0
     TSLOGIC_1 = 0
     TSLOGIC_2 = 1
     TSLOGIC_3 = 0
     TSLOGIC_4 = 0
     TSLOGIC_5 = 1
     TSLOGIC_6 = 0
     TSLOGIC_7 = 0
     TSLOGIC_8 = 1
     TSLOGIC_9 = 0
     TSLOGIC_10 = 0
     TSLOGIC_11 = 1
     TSLOGIC_12 = 0
     TSLOGIC_13 = 0
     TSLOGIC_14 = 1
     TSLOGIC_15 = 0
     TSLOGIC_16 = 0
     TSLOGIC_17 = 1
     TSLOGIC_18 = 0
     TSLOGIC_19 = 0
     TSLOGIC_20 = 1
     TSLOGIC_21 = 0
     TSLOGIC_22 = 0
     TSLOGIC_23 = 1
     TSLOGIC_24 = 0
     TSLOGIC_25 = 0
     TSLOGIC_26 = 1
     FFRAC_0 = 0
     FFRAC_1 = 0
     FFRAC_2 = 0
     FFRAC_3 = 0
     FFRAC_4 = 0
     FFRAC_5 = 0
     FFRAC_6 = 0
     FFRAC_7 = 0
     FFRAC_8 = 0

  CONSTANTS  19
     tech_type = 2
     LU_pb = 65
     T_standby = 2
     P_ref = 111
     eta_ref = 0.3774
     T_htf_hot_ref = 391
     T_htf_cold_ref = 293
     HTF = 21
     q_sby_frac = 0.2
     P_boil = 100
     startup_time = 0.5
     startup_frac = 0.2
     pb_bd_frac = 0.02
     T_amb_des = 20
     dT_cw_ref = 10
     Cool_type = 2
     T_approach = 5
     T_ITD_des = 16
     P_cond_ratio = 1.0028

  CONSTANTS  15
     Pipe_hl_coef = 0.45
     SCA_drives_elec = 125
     PB_pump_coef = 0.55
     TES_pump_coef = 0.15
     PB_fixed_par = 0.0055
     BOP_parVal = 0
     BOP_parPF = 1
     BOP_par0 = 0.483
     BOP_par1 = 0.517
     BOP_par2 = 0
     Aux_parVal = 0.02273
     Aux_parPF = 1
     Aur_par0 = 0.483
     Aur_par1 = 0.517
     Aur_par2 = 0

  CONSTANTS   9
     HC_LOGIC0 = 0
     HC_LOGIC1 = 0
     HC_LOGIC2 = 0
     HC_LOGIC3 = 0
     HC_LOGIC4 = 0
     HC_LOGIC5 = 0
     HC_LOGIC6 = 0
     HC_LOGIC7 = 0
     HC_LOGIC8 = 0
*########################################################################                                                                                                                                                                                                                                                                                                                                                                                                                                                                                                                                                                                                                                                                                                                                                                                                                                                                                                                                                               

  EQUATIONS   6
!(1=GHI, 2=DNI, 3=DHI)                                                                                                                                                                                                                                                                                                                                                                                                                                                                                                                                                                                                                                                                                                                                                                                                                                                                                                                                                                                                 
     fc_dni_mode = 2
!Number of hours ahead to forecast solar resource                                                                                                                                                                                                                                                                                                                                                                                                                                                                                                                                                                                                                                                                                                                                                                                                                                                                                                                                                                          
     fc_hours = 3
!Forecasting enabled?                                                                                                                                                                                                                                                                                                                                                                                                                                                                                                                                                                                                                                                                                                                                                                                                                                                                                                                                                                                                        
     fc_on = 0
!Acceptance testing mode active? (1=yes)                                                                                                                                                                                                                                                                                                                                                                                                                                                                                                                                                                                                                                                                                                                                                                                                                                                                                                                                                                               
     accept_mode = 0
!If accept_mode==1, initialize solar field?                                                                                                                                                                                                                                                                                                                                                                                                                                                                                                                                                                                                                                                                                                                                                                                                                                                                                                                                                                            
     accept_init = 0
     accept_loc = 0
*########################################################################                                                                                                                                                                                                                                                                                                                                                                                                                                                                                                                                                                                                                                                                                                                                                                                                                                                                                                                                                               
! Start time    End time        Time step                                                                                                                                                                                                                                                                                                                                                                                                                                                                                                                                                                                                                                                                                                                                                                                                                                                                                                                                                       

  SIMULATION         1.0000000000000000E+00    8.7600000000000000E+03    1.0000000000000000E+00
! Integration    Convergence                                                                                                                                                                                                                                                                                                                                                                                                                                                                                                                                                                                                                                                                                                                                                                                                                                                                                                                                                                   

  TOLERANCES         1.0000000000000002E-03    5.0000000000000012E-04
! Max iterations        Max warnings    Trace limit                                                                                                                                                                                                                                                                                                                                                                                                                                                                                                                                                                                                                                                                                                                                                                                                                                                                                                                                            

  LIMITS        30       400        31
! TRNSYS numerical integration solver method                                                                                                                                                                                                                                                                                                                                                                                                                                                                                                                                                                                                                                                                                                                                                                                                                                                                                                                                                    

  DFQ   1
! TRNSYS output file width, number of characters                                                                                                                                                                                                                                                                                                                                                                                                                                                                                                                                                                                                                                                                                                                                                                                                                                                                                                                                                

  WIDTH    80
! NOLIST statement                                                                                                                                                                                                                                                                                                                                                                                                                                                                                                                                                                                                                                                                                                                                                                                                                                                                                                                                                                              

  LIST
! MAP statement                                                                                                                                                                                                                                                                                                                                                                                                                                                                                                                                                                                                                                                                                                                                                                                                                                                                                                                                                                                 

  MAP
! Solver statement      Minimum relaxation factor       Maximum relaxation factor                                                                                                                                                                                                                                                                                                                                                                                                                                                                                                                                                                                                                                                                                                                                                                                                                                                                                                               

  SOLVER  0
    1.000000000000000    
    1.000000000000000    
! Nan DEBUG statement                                                                                                                                                                                                                                                                                                                                                                                                                                                                                                                                                                                                                                                                                                                                                                                                                                                                                                                                                                           

  NAN_CHECK   0
! Overwrite DEBUG statement                                                                                                                                                                                                                                                                                                                                                                                                                                                                                                                                                                                                                                                                                                                                                                                                                                                                                                                                                                     

  OVERWRITE_CHECK   0
! EQUATION SOLVER statement                                                                                                                                                                                                                                                                                                                                                                                                                                                                                                                                                                                                                                                                                                                                                                                                                                                                                                                                                                     

  EQUATION SOLVING METHOD         0

  UNIT   6     TYPE  15                                                   
       PARAMETERS  10
! 1 File Type                                                                                                                                                                                                                                                                                                                                                                                                                                                                                                                                                                                                                                                                                                                                                                                                                                                                                                                                                                                                                  
! 2 Logical unit                                                                                                                                                                                                                                                                                                                                                                                                                                                                                                                                                                                                                                                                                                                                                                                                                                                                                                                                                                                                               
! 3 Tilted Surface Radiation Mode                                                                                                                                                                                                                                                                                                                                                                                                                                                                                                                                                                                                                                                                                                                                                                                                                                                                                                                                                                                              
! 4 Ground reflectance - no snow                                                                                                                                                                                                                                                                                                                                                                                                                                                                                                                                                                                                                                                                                                                                                                                                                                                                                                                                                                                               
! 5 Ground reflectance - snow cover                                                                                                                                                                                                                                                                                                                                                                                                                                                                                                                                                                                                                                                                                                                                                                                                                                                                                                                                                                                            
! 6 RAD_IN_MODE Total and DNI                                                                                                                                                                                                                                                                                                                                                                                                                                                                                                                                                                                                                                                                                                                                                                                                                                                                                                                                                                                                       
! 7 Number of surfaces                                                                                                                                                                                                                                                                                                                                                                                                                                                                                                                                                                                                                                                                                                                                                                                                                                                                                                                                                                                                         
! 8 Tracking mode                                                                                                                                                                                                                                                                                                                                                                                                                                                                                                                                                                                                                                                                                                                                                                                                                                                                                                                                                                                                              
! 9 Slope of surface                                                                                                                                                                                                                                                                                                                                                                                                                                                                                                                                                                                                                                                                                                                                                                                                                                                                                                                                                                                                              
! 10 Azimuth of surface                                                                                                                                                                                                                                                                                                                                                                                                                                                                                                                                                                                                                                                                                                                                                                                                                                                                                                                                                                                                        
       2.0000000000000000E+00    1.3000000000000000E+01    3.0000000000000000E+00    2.0000000000000001E-01    7.0000000000000007E-01
       1.0000000000000000E+00    1.0000000000000000E+00    3.0000000000000000E+00    0.0000000000000000E+00    0.0000000000000000E+00
****Assign weather data variables and perform any required unit conversions****                                                                                                                                                                                                                                                                                                                                                                                                                                                                                                                                                                                                                                                                                                                                                                                                                                                                                                                                                         

  EQUATIONS  12
! DNI                                                                                                                                                                                                                                                                                                                                                                                                                                                                                                                                                                                                                                                                                                                                                                                                                                                                                                                                                                                                                  
     c_DNI = [6,15]
! wind speed                                                                                                                                                                                                                                                                                                                                                                                                                                                                                                                                                                                                                                                                                                                                                                                                                                                                                                                                                                                                           
     c_wspd = [6,8]
! dry bulb                                                                                                                                                                                                                                                                                                                                                                                                                                                                                                                                                                                                                                                                                                                                                                                                                                                                                                                                                                                                               
     c_db = [6,1]
! atmospheric pressure -> convert to atm                                                                                                                                                                                                                                                                                                                                                                                                                                                                                                                                                                                                                                                                                                                                                                                                                                                                                                                                                                              
     c_pres = [6,10]
! dew point                                                                                                                                                                                                                                                                                                                                                                                                                                                                                                                                                                                                                                                                                                                                                                                                                                                                                                                                                                                                              
     c_dp = [6,2]
! wet bulb temperature                                                                                                                                                                                                                                                                                                                                                                                                                                                                                                                                                                                                                                                                                                                                                                                                                                                                                                                                                                                                   
     c_wb = [6,3]
     c_rh = [6,7]/100.
     hour_day = [6,56]
!This convention is required for Type16                                                                                                                                                                                                                                                                                                                                                                                                                                                                                                                                                                                                                                                                                                                                                                                                                                                                                                                                                                 
     SHIFT = longitude - timezone*15
     c_azi = [6,17]
     c_zen = [6,16]
!For this case, indicate the solar elevation angle instead of DNI fc                                                                                                                                                                                                                                                                                                                                                                                                                                                                                                                                                                                                                                                                                                                                                                                                                                                                                                                                                 
     dnifc = 90.-c_zen
*******************************************************************************                                                                                                                                                                                                                                                                                                                                                                                                                                                                                                                                                                                                                                                                                                                                                                                                                                                                                                                                                         
* Model HTF Prop1 (Type 229)                                                                                                                                                                                                                                                                                                                                                                                                                                                                                                                                                                                                                                                                                                                                                                                                                                                                                                                                                                                                            

  UNIT   7     TYPE 229     Prop1                                         
       PARAMETERS   3
! 1 Fluid number                                                                                                                                                                                                                                                                                                                                                                                                                                                                                                                                                                                                                                                                                                                                                                                                                                                                                                                                                                                                                    
! 2 Fluid file logical number                                                                                                                                                                                                                                                                                                                                                                                                                                                                                                                                                                                                                                                                                                                                                                                                                                                                                                                                                                                                       
! 3 Fluid error file logical number                                                                                                                                                                                                                                                                                                                                                                                                                                                                                                                                                                                                                                                                                                                                                                                                                                                                                                                                                                                                 
       2.0000000000000000E+01    9.5000000000000000E+01    9.6000000000000000E+01
       INPUTS    1
! HotTank:Fluid temperature ->Temperature                                                                                                                                                                                                                                                                                                                                                                                                                                                                                                                                                                                                                                                                                                                                                                                                                                                                                                                                                                                    
       I_LENGTH            
*** INITIAL INPUT VALUES                                                                                                                                                                                                                                                                                                                                                                                                                                                                                                                                                                                                                                                                                                                                                                                                                                                                                                                                                                                                                
       3.6500000000000000E+02
*** USER VARIABLES ***                                                                                                                                                                                                                                                                                                                                                                                                                                                                                                                                                                                                                                                                                                                                                                                                                                                                                                                                                                                                                  

  CONSTANTS  10
     UDV1 = 0
     UDV2 = 0
     UDV3 = 0
     UDV4 = 0
     UDV5 = 0
     UDV6 = 0
     UDV7 = 0
     UDV8 = 0
     UDV9 = 0
     UDV10 = 0
*** END INCLUDE SECTION ***                                                                                                                                                                                                                                                                                                                                                                                                                                                                                                                                                                                                                                                                                                                                                                                                                                                                                                                                                                                                             
*** BEGIN DECK ***                                                                                                                                                                                                                                                                                                                                                                                                                                                                                                                                                                                                                                                                                                                                                                                                                                                                                                                                                                                                                      
*---------Common for both weather file configurations starting here---------                                                                                                                                                                                                                                                                                                                                                                                                                                                                                                                                                                                                                                                                                                                                                                                                                                                                                                                                                            
* Model "TOUPERiod" (Type 9)                                                                                                                                                                                                                                                                                                                                                                                                                                                                                                                                                                                                                                                                                                                                                                                                                                                                                                                                                                                                            
*|*                                                                                                                                                                                                                                                                                                                                                                                                                                                                                                                                                                                                                                                                                                                                                                                                                                                                                                                                                                                                                                     
*|* *** Model TOUPERiod (Type 9, Unit 8)                                                                                                                                                                                                                                                                                                                                                                                                                                                                                                                                                                                                                                                                                                                                                                                                                                                                                                                                                                                                
*|*                                                                                                                                                                                                                                                                                                                                                                                                                                                                                                                                                                                                                                                                                                                                                                                                                                                                                                                                                                                                                                     

  CONSTANTS   7
*|*PARAMETERS                           VALUES                  UNITS                                                                                                                                                                                                                                                                                                                                                                                                                                                                                                                                                                                                                                                                                                                                                                                                                                                                                                                                                                   
     HEADERLI=1
*|Header Lines to Skip                    |-|-|0|1|0|1000000.00000|1000                                                                                                                                                                                                                                                                                                                                                                                                                                                                                                                                                                                                                                                                                                                                                                                                                                                                                                                                                                 
     NOOFVALU=1
*|No. of values to read                   |-|-|0|1|1|98.000|1000                                                                                                                                                                                                                                                                                                                                                                                                                                                                                                                                                                                                                                                                                                                                                                                                                                                                                                                                                                        
     TIMEINTE=1.0
*|Time interval of data                   |hr|hr|0|1|0.0|1000000.00000|1000                                                                                                                                                                                                                                                                                                                                                                                                                                                                                                                                                                                                                                                                                                                                                                                                                                                                                                                                                             
     INTERPOL=-1
*|Interpolate or not?                     |-|-|0|1|-1|1.000|1000                                                                                                                                                                                                                                                                                                                                                                                                                                                                                                                                                                                                                                                                                                                                                                                                                                                                                                                                                                        
     MULTIPLI=1.0
*|Multiplication factor                   |-|-|0|1|-1000000.00000|1000000.00000|1000                                                                                                                                                                                                                                                                                                                                                                                                                                                                                                                                                                                                                                                                                                                                                                                                                                                                                                                                                    
     ADDITION=0
*|Addition factor                         |-|-|0|1|-1000000.00000|1000000.00000|1000                                                                                                                                                                                                                                                                                                                                                                                                                                                                                                                                                                                                                                                                                                                                                                                                                                                                                                                                                    
     AVERAGEO=1
*|Average or instantaneous value          |-|-|0|1|0|1.000|1000                                                                                                                                                                                                                                                                                                                                                                                                                                                                                                                                                                                                                                                                                                                                                                                                                                                                                                                                                                         

  UNIT   8     TYPE   9                                                   
*$UNIT_NAME TOUPERiod                                                                                                                                                                                                                                                                                                                                                                                                                                                                                                                                                                                                                                                                                                                                                                                                                                                                                                                                                                                                                   
*$MODEL .\Utility\Data Readers\Generic Data Files\First Line is Simulation Start\Free Format\Type9a.tmf                                                                                                                                                                                                                                                                                                                                                                                                                                                                                                                                                                                                                                                                                                                                                                                                                                                                                                                                 
*$POSITION 81 61                                                                                                                                                                                                                                                                                                                                                                                                                                                                                                                                                                                                                                                                                                                                                                                                                                                                                                                                                                                                                        
*$LAYER Weather - Data Files #                                                                                                                                                                                                                                                                                                                                                                                                                                                                                                                                                                                                                                                                                                                                                                                                                                                                                                                                                                                                          
       PARAMETERS  10
[...]
! 10 Print labels                                                                                                                                                                                                                                                                                                                                                                                                                                                                                                                                                                                                                                                                                                                                                                                                                                                                                                                                                                                               
       1.0000000000000000E+00    1.0000000000000000E+00    8.7600000000000000E+03    6.7000000000000000E+01    1.0000000000000000E+00
       0.0000000000000000E+00   -1.0000000000000000E+00   -1.0000000000000000E+00    0.0000000000000000E+00    1.0000000000000000E+00
       INPUTS    1
! [equation] Net electric power output                                                                                                                                                                                                                                                                                                                                                                                                                                                                                                                                                                                                                                                                                                                                                                                                                                                                                                                                                                                            
       E_NET               
       E_net                                    
       W/m2                

  END


         TRANSIENT SIMULATION     STARTING AT TIME =  1.0000000000000000E+00
                                  STOPPING AT TIME =  8.7600000000000000E+03
                                          TIMESTEP =         1 /        1
             DIFFERENTIAL EQUATION ERROR TOLERANCE =  1.0000000000000002E-03
                   ALGEBRAIC CONVERGENCE TOLERANCE =  5.0000000000000012E-04
1  TRNSYS COMPONENT OUTPUT MAP

  UNIT  6 TYPE 15  UNIT/TYPE/INPUT

  UNIT  7 TYPE229  UNIT/TYPE/INPUT

  UNIT  8 TYPE  9  UNIT/TYPE/INPUT
       OUTPUT  1           4 251   2
                        5 224   9

  UNIT  3 TYPE250  UNIT/TYPE/INPUT
       OUTPUT  2           4 251   3
       OUTPUT  1           4 251   5
       OUTPUT 12           4 251   9
       OUTPUT  9          20  25   9
       OUTPUT 21          20  25  10
       OUTPUT 22          20  25  11
       OUTPUT 23          20  25  12
       OUTPUT 24          20  25  13
       OUTPUT 25          20  25  14
       OUTPUT 26          20  25  15
       OUTPUT 27          20  25  16
       OUTPUT  2          20  25  19
       OUTPUT 11          20  25  20
       OUTPUT 16          20  25  26
       OUTPUT 10          20  25  28
       OUTPUT  4          20  25  33
       OUTPUT  5          20  25  35
       OUTPUT 18          20  25  37
       OUTPUT  3          20  25  44
       OUTPUT 13          20  25  45
       OUTPUT 14          20  25  46
       OUTPUT 19          20  25  49
       OUTPUT 20          20  25  50
       OUTPUT 15          20  25  52
       OUTPUT 17          20  25  53
       OUTPUT  6          20  25  56
       OUTPUT 12          20  25  58
       OUTPUT  8          20  25  59
       OUTPUT  1          20  25  60
       OUTPUT  5          22  24   1
       OUTPUT 18          22  24   3
       OUTPUT  3          22  24  10
       OUTPUT 13          22  24  11
       OUTPUT 14          22  24  12
       OUTPUT 19          22  24  14
       OUTPUT 20          22  24  15
       OUTPUT 15          22  24  16
       OUTPUT  6          22  24  19
       OUTPUT 12          22  24  21
       OUTPUT  5          23  24   1
       OUTPUT 18          23  24   3
       OUTPUT  3          23  24  10
       OUTPUT 13          23  24  11
       OUTPUT 14          23  24  12
       OUTPUT 19          23  24  14
       OUTPUT 20          23  24  15
       OUTPUT 15          23  24  16
       OUTPUT  6          23  24  19
       OUTPUT 12          23  24  21
       OUTPUT  9          26  24   9
       OUTPUT 21          26  24  10
       OUTPUT 22          26  24  11
       OUTPUT 23          26  24  12
       OUTPUT 24          26  24  13
       OUTPUT 25          26  24  14
       OUTPUT 26          26  24  15
       OUTPUT 27          26  24  16
       OUTPUT  2          26  24  19
       OUTPUT 11          26  24  20
       OUTPUT 16          26  24  26
       OUTPUT 10          26  24  28
       OUTPUT  4          26  24  33
       OUTPUT  5          26  24  35
       OUTPUT 18          26  24  37
       OUTPUT  3          26  24  44
       OUTPUT 13          26  24  45
       OUTPUT 14          26  24  46
       OUTPUT 19          26  24  49
       OUTPUT 20          26  24  50
       OUTPUT 15          26  24  52
       OUTPUT 17          26  24  53
       OUTPUT  6          26  24  56
       OUTPUT 12          26  24  58
       OUTPUT  8          26  24  59
       OUTPUT  1          26  24  60

  UNIT  4 TYPE251  UNIT/TYPE/INPUT
       OUTPUT  6           3 250   7
       OUTPUT  1           3 250   9
       OUTPUT  2           5 224   1
       OUTPUT  5           5 224   2
       OUTPUT  4           5 224   3
                        5 224   5
       OUTPUT  3           5 224   6
       OUTPUT  4          20  25  21
       OUTPUT  7          20  25  23
       OUTPUT  8          20  25  24
       OUTPUT 18          20  25  25
       OUTPUT 22          20  25  29
       OUTPUT 24          20  25  30
       OUTPUT 23          20  25  31
       OUTPUT 25          20  25  32
       OUTPUT 26          20  25  36
       OUTPUT 27          20  25  38
       OUTPUT 28          20  25  39
       OUTPUT 29          20  25  40
       OUTPUT 30          20  25  47
       OUTPUT 32          20  25  48
       OUTPUT 31          20  25  51
       OUTPUT 19          20  25  54
       OUTPUT 20          20  25  55
       OUTPUT 17          20  25  57
       OUTPUT  6          20  25  61
       OUTPUT 12          20  25  62
       OUTPUT 11          20  25  63
       OUTPUT 16          20  25  64
       OUTPUT 14          20  25  65
       OUTPUT  9          20  25  66
       OUTPUT 10          20  25  67
       OUTPUT  5          20  25  68
       OUTPUT 15          20  25  70
       OUTPUT 13          20  25  71
       OUTPUT 21          20  25  72
       OUTPUT 26          22  24   2
       OUTPUT 27          22  24   4
       OUTPUT 28          22  24   5
       OUTPUT 29          22  24   6
       OUTPUT 30          22  24  13
       OUTPUT 19          22  24  17
       OUTPUT 20          22  24  18
       OUTPUT 17          22  24  20
       OUTPUT 26          23  24   2
       OUTPUT 27          23  24   4
       OUTPUT 28          23  24   5
       OUTPUT 29          23  24   6
       OUTPUT 30          23  24  13
       OUTPUT 19          23  24  17
       OUTPUT 20          23  24  18
       OUTPUT 17          23  24  20
       OUTPUT  4          26  24  21
       OUTPUT  7          26  24  23
       OUTPUT  8          26  24  24
       OUTPUT 18          26  24  25
       OUTPUT 22          26  24  29
       OUTPUT 24          26  24  30
       OUTPUT 23          26  24  31
       OUTPUT 25          26  24  32
       OUTPUT 26          26  24  36
       OUTPUT 27          26  24  38
       OUTPUT 28          26  24  39
       OUTPUT 29          26  24  40
       OUTPUT 30          26  24  47
       OUTPUT 32          26  24  48
       OUTPUT 31          26  24  51
       OUTPUT 19          26  24  54
       OUTPUT 20          26  24  55
       OUTPUT 17          26  24  57
       OUTPUT  6          26  24  61
       OUTPUT 12          26  24  62
       OUTPUT 11          26  24  63
       OUTPUT 16          26  24  64
       OUTPUT 14          26  24  65
       OUTPUT  9          26  24  66
       OUTPUT 10          26  24  67
       OUTPUT  5          26  24  68
       OUTPUT 15          26  24  70
       OUTPUT 13          26  24  71
       OUTPUT 21          26  24  72

  UNIT  5 TYPE224  UNIT/TYPE/INPUT
       OUTPUT  7           4 251   4
       OUTPUT  3           4 251   6
       OUTPUT  5           4 251   8
       OUTPUT 11          20  25  17
       OUTPUT 10          20  25  18
       OUTPUT  5          20  25  22
       OUTPUT  4          20  25  27
       OUTPUT  2          20  25  34
       OUTPUT  8          20  25  41
       OUTPUT  1          20  25  42
       OUTPUT  3          20  25  69
       OUTPUT  8          22  24   7
       OUTPUT  1          22  24   8
       OUTPUT  4          22  24  22
       OUTPUT  8          23  24   7
       OUTPUT  1          23  24   8
       OUTPUT  4          23  24  22
       OUTPUT 11          26  24  17
       OUTPUT 10          26  24  18
       OUTPUT  5          26  24  22
       OUTPUT  4          26  24  27
       OUTPUT  2          26  24  34
       OUTPUT  8          26  24  41
       OUTPUT  1          26  24  42
       OUTPUT  3          26  24  69

  UNIT 20 TYPE 25  UNIT/TYPE/INPUT

  UNIT 22 TYPE 24  UNIT/TYPE/INPUT
       OUTPUT  1          24  25   1
       OUTPUT  2          24  25   2
       OUTPUT  3          24  25   3
       OUTPUT  4          24  25   4
       OUTPUT  5          24  25   5
       OUTPUT  6          24  25   6
       OUTPUT  7          24  25   7
       OUTPUT  8          24  25   8
       OUTPUT  9          24  25   9
       OUTPUT 10          24  25  10
       OUTPUT 11          24  25  11
       OUTPUT 12          24  25  12
       OUTPUT 13          24  25  13
       OUTPUT 14          24  25  14
       OUTPUT 15          24  25  15
       OUTPUT 16          24  25  16
       OUTPUT 17          24  25  17
       OUTPUT 18          24  25  18
       OUTPUT 19          24  25  19
       OUTPUT 20          24  25  20
       OUTPUT 21          24  25  21
       OUTPUT 22          24  25  22
       OUTPUT 23          24  25  23
       OUTPUT 24          24  25  24
       OUTPUT 25          24  25  25
       OUTPUT 26          24  25  26
       OUTPUT 27          24  25  27

  UNIT 23 TYPE 24  UNIT/TYPE/INPUT
       OUTPUT  1          25  25   1
       OUTPUT  2          25  25   2
       OUTPUT  3          25  25   3
       OUTPUT  4          25  25   4
       OUTPUT  5          25  25   5
       OUTPUT  6          25  25   6
       OUTPUT  7          25  25   7
       OUTPUT  8          25  25   8
       OUTPUT  9          25  25   9
       OUTPUT 10          25  25  10
       OUTPUT 11          25  25  11
       OUTPUT 12          25  25  12
       OUTPUT 13          25  25  13
       OUTPUT 14          25  25  14
       OUTPUT 15          25  25  15
       OUTPUT 16          25  25  16
       OUTPUT 17          25  25  17
       OUTPUT 18          25  25  18
       OUTPUT 19          25  25  19
       OUTPUT 20          25  25  20
       OUTPUT 21          25  25  21
       OUTPUT 22          25  25  22
       OUTPUT 23          25  25  23
       OUTPUT 24          25  25  24
       OUTPUT 25          25  25  25
       OUTPUT 26          25  25  26
       OUTPUT 27          25  25  27

  UNIT 24 TYPE 25  UNIT/TYPE/INPUT

  UNIT 25 TYPE 25  UNIT/TYPE/INPUT

  UNIT 26 TYPE 24  UNIT/TYPE/INPUT
       OUTPUT  1          27  25   1
       OUTPUT  2          27  25   2
       OUTPUT  3          27  25   3
       OUTPUT  4          27  25   4
       OUTPUT  5          27  25   5
       OUTPUT  6          27  25   6
       OUTPUT  7          27  25   7
       OUTPUT  8          27  25   8
       OUTPUT  9          27  25   9
       OUTPUT 10          27  25  10
       OUTPUT 11          27  25  11
       OUTPUT 12          27  25  12
       OUTPUT 13          27  25  13
       OUTPUT 14          27  25  14
       OUTPUT 15          27  25  15
       OUTPUT 16          27  25  16
       OUTPUT 17          27  25  17
       OUTPUT 18          27  25  18
       OUTPUT 19          27  25  19
       OUTPUT 20          27  25  20
       OUTPUT 21          27  25  21
       OUTPUT 22          27  25  22
       OUTPUT 23          27  25  23
       OUTPUT 24          27  25  24
       OUTPUT 25          27  25  25
       OUTPUT 26          27  25  26
       OUTPUT 27          27  25  27
       OUTPUT 28          27  25  28
       OUTPUT 29          27  25  29
       OUTPUT 30          27  25  30
       OUTPUT 31          27  25  31
       OUTPUT 32          27  25  32
       OUTPUT 33          27  25  33
       OUTPUT 34          27  25  34
       OUTPUT 35          27  25  35
       OUTPUT 36          27  25  36
       OUTPUT 37          27  25  37
       OUTPUT 38          27  25  38
       OUTPUT 39          27  25  39
       OUTPUT 40          27  25  40
       OUTPUT 41          27  25  41
       OUTPUT 42          27  25  42
       OUTPUT 43          27  25  43
       OUTPUT 44          27  25  44
       OUTPUT 45          27  25  45
       OUTPUT 46          27  25  46
       OUTPUT 47          27  25  47
       OUTPUT 48          27  25  48
       OUTPUT 49          27  25  49
       OUTPUT 50          27  25  50
       OUTPUT 51          27  25  51
       OUTPUT 52          27  25  52
       OUTPUT 53          27  25  53
       OUTPUT 54          27  25  54
       OUTPUT 55          27  25  55
       OUTPUT 56          27  25  56
       OUTPUT 57          27  25  57
       OUTPUT 58          27  25  58
       OUTPUT 59          27  25  59
       OUTPUT 60          27  25  60
       OUTPUT 61          27  25  61
       OUTPUT 62          27  25  62
       OUTPUT 63          27  25  63
       OUTPUT 64          27  25  64
       OUTPUT 65          27  25  65
       OUTPUT 66          27  25  66
       OUTPUT 67          27  25  67
       OUTPUT 68          27  25  68
       OUTPUT 69          27  25  69
       OUTPUT 70          27  25  70
       OUTPUT 71          27  25  71
       OUTPUT 72          27  25  72

  UNIT 27 TYPE 25  UNIT/TYPE/INPUT

  UNIT 28 TYPE 25  UNIT/TYPE/INPUT

  EQUATIONS        UNIT/TYPE/INPUT
       I_LENGTH                       7 229   1
       C_DNI                          3 250   1
                        4 251   1
       C_WSPD                         3 250   3
                       20  25   4
                       26  24   4
       C_DB                           3 250   2
                        4 251   7
                        5 224   7
                       20  25   7
                       26  24   7
       C_PRES                         3 250   4
                        5 224   8
                       20  25   3
                       26  24   3
       C_DP                           3 250   5
       C_WB                           5 224   4
                       20  25   8
                       26  24   8
       C_RH                           5 224  10
       HOUR_DAY                      20  25   2
                       26  24   2
       SHIFT                          3 250   6
       C_AZI                          3 250  10
                       20  25   5
                       26  24   5
       DNIFC                          4 251  10
       DNI                           20  25   1
                       26  24   1
       ELEV                          20  25   6
                       26  24   6
       E_NET                         20  25  43
                       22  24   9
                       23  24   9
                       26  24  43
                       28  25   1
       WFALL1                        22  24  23
                       23  24  23
       WFALL2                        22  24  24
                       23  24  24
       WFALL3                        22  24  25
                       23  24  25
       WFALL4                        22  24  26
                       23  24  26
       WFALL5                        22  24  27
                       23  24  27

     DIFFERENTIAL EQUATIONS SOLVED BY MODIFIED EULER   
 
*** Warning at time       :         0.000000
    Generated by Unit     : Not applicable or not available
    Generated by Type     : Not applicable or not available
    TRNSYS Message    443 : The file containing the TRNSYS dimensions and unit conversions (UNITS.LAB) could not be found or is empty.  Unit conversions will not be done and output units will not be printed to the output files.
    Reported information  : Could not find "units.lab"
 

*** The TRNSYS components will be called in the following order:
      Unit #    6   Type #   15
      Unit #    8   Type #    9
      Unit #    7   Type #  229
      Unit #    3   Type #  250
      Unit #    4   Type #  251
      Unit #    5   Type #  224
      Unit #   22   Type #   24
      Unit #   23   Type #   24
      Unit #   26   Type #   24
      Unit #   20   Type #   25
      Unit #   24   Type #   25
      Unit #   25   Type #   25
      Unit #   27   Type #   25
      Unit #   28   Type #   25


*********************************************************************************************************
The Following UNIT Numbers, TYPE Numbers, and Logical Units Were Used in the Supplied TRNSYS Input File: 
                         3             9                 4
                         4            15                 6
                         5            24                 9
                         6            25                13
                         7           224                25
                         8           229                36
                        20           250                39
                        22           251                40
                        23                              45
                        24                              48
                        25                              55
                        26                              65
                        27                              67
                        28                              95
                                                        96


*********************************************************************************************************
Total TRNSYS Calculation Time:                         25.0500 Seconds
