            TRNSYS - the TRaNsient SYstem Simulation program

   The Solar Energy Lab at the University of Wisconsin - Madison, USA
Le Centre Scientifique et Technique du Batiment, Sophia Antipolis, France
           Transsolar Energietechnik GmBH, Stuttgart, Germany
        Thermal Energy System Specialists, Madison Wisconsin, USA

                           Release 16.xx.xxxx

Listing file for: "C:\Users\tneises\Documents\Projects\tcs\typelib\Dish_Stirling\trnsys.dish.trd"
 
*** Notice at time        :         0.000000
    Generated by Unit     : Not applicable or not available
    Generated by Type     : Not applicable or not available
    Message               : The TRNSYS Executable (TRNExe.exe) and main DLL (TRNDll.dll) are located in "."
 

 *** Pre-Processing the TRNSYS EQUATIONs and CONSTANTs to check for fatal errors.

 *** Pre-Processing of EQUATIONs and CONSTANTs completed with no fatal errors found.

 *** Evaluating the EQUATIONs and CONSTANTs to determine their initial values.

 *** Finished evaluating the EQUATIONs and CONSTANTs and ready to begin processing the remainder of the TRNSYS input file.

  VERSION        16
*****************************************************************                                                                                                                                                                                                                                                                                                                                                                                                                                                                                                                                                                                                                                                                                                                                                                                                                                                                                                                                                                       
*** TRNSYS input file generated by samsim 2.3.3                                                                                                                                                                                                                                                                                                                                                                                                                                                                                                                                                                                                                                                                                                                                                                                                                                                                                                                                                                                         
*** DECK C:\SAM\2013.7.3/exelib/trnsys/decks/csp_dish.trdsrc                                                                                                                                                                                                                                                                                                                                                                                                                                                                                                                                                                                                                                                                                                                                                                                                                                                                                                                                                                            
*** Copyright (c) 2010 National Renewable Energy Laboratory                                                                                                                                                                                                                                                                                                                                                                                                                                                                                                                                                                                                                                                                                                                                                                                                                                                                                                                                                                             
*****************************************************************                                                                                                                                                                                                                                                                                                                                                                                                                                                                                                                                                                                                                                                                                                                                                                                                                                                                                                                                                                       
*** BEGIN INCLUDE SECTION ***                                                                                                                                                                                                                                                                                                                                                                                                                                                                                                                                                                                                                                                                                                                                                                                                                                                                                                                                                                                                           
*** BEGIN DISH STIRLING INCLUDE SECTION (SAMSIM:TrnDishModel) ***                                                                                                                                                                                                                                                                                                                                                                                                                                                                                                                                                                                                                                                                                                                                                                                                                                                                                                                                                                       
  ASSIGN C:\Users\tneises\Documents\Projects\tcs\typelib\Dish_Stirling/dish.annual.out   40
  ASSIGN C:\Users\tneises\Documents\Projects\tcs\typelib\Dish_Stirling/dish.monthly.out   25
  ASSIGN C:\Users\tneises\Documents\Projects\tcs\typelib\Dish_Stirling/dish.hourly.out   36
  ASSIGN C:\Users\tneises\Documents\Projects\tcs\typelib\Dish_Stirling/step.out   35
  ASSIGN C:\SAM\2013.7.3/weather/AZ Tucson.tm2   13

  EQUATIONS   9
     I_MONTH= 0
     I_DAY1= 1
     I_DAY=I_MONTH/24+I_DAY1
     I_LENGTH= 365
     WEEKS=I_LENGTH/7
     START=24*(I_DAY-1)+1
     STOP=START+I_LENGTH*24-1
     STEP=1
     DISPSWCH = -1

  CONSTANTS  18
     d_ap = 0.184
     reflectivity = 0.94
     num_collect = 4000
     NNS = 50
     NEW = 80
     NS_dish_sep = 15
     EW_dish_sep = 15
     wind_stow_speed = 16
     slope_NS = 0
     slope_EW = 0
     width_slot_gap = 1
     height_slot_gap = 1
     proj_area = 87.7
     total_area = 91
     d_ap_TEST = 0.184
     test_intercept_f = 0.995
     test_focal_length = 7.45
     i_cut_in = 200

  CONSTANTS   2
     TRAKMODE = 4
     WFType = 2

  CONSTANTS  13
     rec_type = 1
     trans_cover = 1
     alpha_absorb = 0.9
     A_absorb = 0.6
     alpha_wall = 0.6
     A_wall = 0.6
     L_insul = 0.075
     k_insul = 0.06
     d_cav = 0.46
     p_cav = 101
     l_cav = 0.46
     delta_T_DIR = 90
     delta_T_reflux = 40

  CONSTANTS  11
     T_heater_head_high = 993
     T_heater_head_low = 973
     Beale_const_coef = 0.04247
     Beale_first_coef = 1.682e-005
     Beale_square_coef = -5.105e-010
     Beale_third_coef = 7.073e-015
     Beale_fourth_coef = -3.586e-020
     Pressure_coef = 0.658769
     Pressure_first = 0.00023496
     engine_speed = 1800
     V_displaced = 0.00038

  CONSTANTS  22
     SYS_AVAIL = 1.0
     PUMPSPEED = 1800
     FAN_SPD1 = 400
     FAN_SPD2 = 550
     FAN_SPD3 = 650
     T_cool_speed2 = 20
     T_cool_speed3 = 30
     coolfluid = 2
     P_controls = 150
     EPS_COOL = 0.6
     EPS_RADTR = 0.6
     b_radiator = 0.7
     b_cooler = 0.7
     TEST_P_pump = 100
     TEST_pump_speed = 1800
     TEST_coolfluid = 2
     TEST_T_fluid = 288
     TEST_V_dot_Fluid = 9
     TEST_P_fan = 1000
     TEST_fan_speed = 890
     TEST_fan_rho_air = 1.2
     TEST_fan_CFM = 6000
*** END DISH STIRLING INCLUDE SECTION (SAMSIM:TrnDishModel) ***                                                                                                                                                                                                                                                                                                                                                                                                                                                                                                                                                                                                                                                                                                                                                                                                                                                                                                                                                                         
*** USER VARIABLES ***                                                                                                                                                                                                                                                                                                                                                                                                                                                                                                                                                                                                                                                                                                                                                                                                                                                                                                                                                                                                                  

  CONSTANTS  10
     UDV1 = 0
     UDV2 = 0
     UDV3 = 0
     UDV4 = 0
     UDV5 = 0
     UDV6 = 0
     UDV7 = 0
     UDV8 = 0
     UDV9 = 0
     UDV10 = 0
*** END INCLUDE SECTION ***                                                                                                                                                                                                                                                                                                                                                                                                                                                                                                                                                                                                                                                                                                                                                                                                                                                                                                                                                                                                             
*** BEGIN DECK ***                                                                                                                                                                                                                                                                                                                                                                                                                                                                                                                                                                                                                                                                                                                                                                                                                                                                                                                                                                                                                      
*******************************************************************************                                                                                                                                                                                                                                                                                                                                                                                                                                                                                                                                                                                                                                                                                                                                                                                                                                                                                                                                                         
*** Control cards                                                                                                                                                                                                                                                                                                                                                                                                                                                                                                                                                                                                                                                                                                                                                                                                                                                                                                                                                                                                                       
*******************************************************************************                                                                                                                                                                                                                                                                                                                                                                                                                                                                                                                                                                                                                                                                                                                                                                                                                                                                                                                                                         
! Start time    End time        Time step                                                                                                                                                                                                                                                                                                                                                                                                                                                                                                                                                                                                                                                                                                                                                                                                                                                                                                                                                       

  SIMULATION         1.0000000000000000E+00    8.7600000000000000E+03    1.0000000000000000E+00
! Integration    Convergence                                                                                                                                                                                                                                                                                                                                                                                                                                                                                                                                                                                                                                                                                                                                                                                                                                                                                                                                                                    

  TOLERANCES         1.0000000000000002E-03    3.0000000000000009E-03
! Max iterations        Max warnings    Trace limit                                                                                                                                                                                                                                                                                                                                                                                                                                                                                                                                                                                                                                                                                                                                                                                                                                                                                                                                            

  LIMITS        30       400        31
! TRNSYS numerical integration solver method                                                                                                                                                                                                                                                                                                                                                                                                                                                                                                                                                                                                                                                                                                                                                                                                                                                                                                                                                    

  DFQ   1
! TRNSYS output file width, number of characters                                                                                                                                                                                                                                                                                                                                                                                                                                                                                                                                                                                                                                                                                                                                                                                                                                                                                                                                                

  WIDTH    80
! NOLIST statement                                                                                                                                                                                                                                                                                                                                                                                                                                                                                                                                                                                                                                                                                                                                                                                                                                                                                                                                                                              

  LIST
! MAP statement                                                                                                                                                                                                                                                                                                                                                                                                                                                                                                                                                                                                                                                                                                                                                                                                                                                                                                                                                                                 

  MAP
! Solver statement      Minimum relaxation factor       Maximum relaxation factor                                                                                                                                                                                                                                                                                                                                                                                                                                                                                                                                                                                                                                                                                                                                                                                                                                                                                                               

  SOLVER  0
    1.000000000000000    
    1.000000000000000    
! Nan DEBUG statement                                                                                                                                                                                                                                                                                                                                                                                                                                                                                                                                                                                                                                                                                                                                                                                                                                                                                                                                                                           

  NAN_CHECK   0
! Overwrite DEBUG statement                                                                                                                                                                                                                                                                                                                                                                                                                                                                                                                                                                                                                                                                                                                                                                                                                                                                                                                                                                     

  OVERWRITE_CHECK   0
! EQUATION SOLVER statement                                                                                                                                                                                                                                                                                                                                                                                                                                                                                                                                                                                                                                                                                                                                                                                                                                                                                                                                                                     

  EQUATION SOLVING METHOD         0
*|*                                                                                                                                                                                                                                                                                                                                                                                                                                                                                                                                                                                                                                                                                                                                                                                                                                                                                                                                                                                                                                     
*|* *** Model Type201-2 (Type 201, Unit 11)                                                                                                                                                                                                                                                                                                                                                                                                                                                                                                                                                                                                                                                                                                                                                                                                                                                                                                                                                                                             
*|*                                                                                                                                                                                                                                                                                                                                                                                                                                                                                                                                                                                                                                                                                                                                                                                                                                                                                                                                                                                                                                     

  UNIT   2     TYPE  15                                                   
*$UNIT_NAME Type15-3                                                                                                                                                                                                                                                                                                                                                                                                                                                                                                                                                                                                                                                                                                                                                                                                                                                                                                                                                                                                                    
*$MODEL .\Weather Data Reading and Processing\Standard Format\Energy+ Weather Files (EPW)\Type15-3.tmf                                                                                                                                                                                                                                                                                                                                                                                                                                                                                                                                                                                                                                                                                                                                                                                                                                                                                                                                  
*$LAYER Weather - Data Files #                                                                                                                                                                                                                                                                                                                                                                                                                                                                                                                                                                                                                                                                                                                                                                                                                                                                                                                                                                                                          
       PARAMETERS  10
! 1 File Type                                                                                                                                                                                                                                                                                                                                                                                                                                                                                                                                                                                                                                                                                                                                                                                                                                                                                                                                                                                                                  
! 2 Logical unit                                                                                                                                                                                                                                                                                                                                                                                                                                                                                                                                                                                                                                                                                                                                                                                                                                                                                                                                                                                                               
! 3 Tilted Surface Radiation Mode                                                                                                                                                                                                                                                                                                                                                                                                                                                                                                                                                                                                                                                                                                                                                                                                                                                                                                                                                                                              
! 4 Ground reflectance - no snow                                                                                                                                                                                                                                                                                                                                                                                                                                                                                                                                                                                                                                                                                                                                                                                                                                                                                                                                                                                               
! 5 Ground reflectance - snow cover                                                                                                                                                                                                                                                                                                                                                                                                                                                                                                                                                                                                                                                                                                                                                                                                                                                                                                                                                                                            
! 6 RAD_IN_MODE Total and DNI                                                                                                                                                                                                                                                                                                                                                                                                                                                                                                                                                                                                                                                                                                                                                                                                                                                                                                                                                                                                       
! 7 Number of surfaces                                                                                                                                                                                                                                                                                                                                                                                                                                                                                                                                                                                                                                                                                                                                                                                                                                                                                                                                                                                                         
! 8 Tracking mode                                                                                                                                                                                                                                                                                                                                                                                                                                                                                                                                                                                                                                                                                                                                                                                                                                                                                                                                                                                                              
! 9 Slope of surface                                                                                                                                                                                                                                                                                                                                                                                                                                                                                                                                                                                                                                                                                                                                                                                                                                                                                                                                                                                                           
! 10 Azimuth of surface                                                                                                                                                                                                                                                                                                                                                                                                                                                                                                                                                                                                                                                                                                                                                                                                                                                                                                                                                                                                        
       2.0000000000000000E+00    1.3000000000000000E+01    3.0000000000000000E+00    2.0000000000000001E-01    7.0000000000000007E-01
       1.0000000000000000E+00    1.0000000000000000E+00    4.0000000000000000E+00    0.0000000000000000E+00    0.0000000000000000E+00
*------------------------------------------------------------------------------                                                                                                                                                                                                                                                                                                                                                                                                                                                                                                                                                                                                                                                                                                                                                                                                                                                                                                                                                         
* Model "11_1_07_Collector" (Type 295)                                                                                                                                                                                                                                                                                                                                                                                                                                                                                                                                                                                                                                                                                                                                                                                                                                                                                                                                                                                                  
*                                                                                                                                                                                                                                                                                                                                                                                                                                                                                                                                                                                                                                                                                                                                                                                                                                                                                                                                                                                                                                       

  UNIT  16     TYPE 295                                                   
*$UNIT_NAME 11_1_07_Collector                                                                                                                                                                                                                                                                                                                                                                                                                                                                                                                                                                                                                                                                                                                                                                                                                                                                                                                                                                                                           
*$MODEL .\Paul components\11_1_07_Collector.tmf                                                                                                                                                                                                                                                                                                                                                                                                                                                                                                                                                                                                                                                                                                                                                                                                                                                                                                                                                                                         
*$POSITION 81 269                                                                                                                                                                                                                                                                                                                                                                                                                                                                                                                                                                                                                                                                                                                                                                                                                                                                                                                                                                                                                       
*$LAYER Main #                                                                                                                                                                                                                                                                                                                                                                                                                                                                                                                                                                                                                                                                                                                                                                                                                                                                                                                                                                                                                          
       PARAMETERS  18
!C      Dish Aperture		m   [0;+Inf]                                                                                                                                                                                                                                                                                                                                                                                                                                                                                                                                                                                                                                                                                                                                                                                                                                                                                                                                                                                             
!C	Reflectivity	- [0;1]                                                                                                                                                                                                                                                                                                                                                                                                                                                                                                                                                                                                                                                                                                                                                                                                                                                                                                                                                                                                 
! 3 NNS                                                                                                                                                                                                                                                                                                                                                                                                                                                                                                                                                                                                                                                                                                                                                                                                                                                                                                                                                                                                                            
! 4 NEW                                                                                                                                                                                                                                                                                                                                                                                                                                                                                                                                                                                                                                                                                                                                                                                                                                                                                                                                                                                                                            
!C	NS_dish_seperation     m   [0;+Inf]                                                                                                                                                                                                                                                                                                                                                                                                                                                                                                                                                                                                                                                                                                                                                                                                                                                                                                                                                                                     
!C	EW_dish_seperation     m   [0;+Inf]                                                                                                                                                                                                                                                                                                                                                                                                                                                                                                                                                                                                                                                                                                                                                                                                                                                                                                                                                                                     
!deg                                                                                                                                                                                                                                                                                                                                                                                                                                                                                                                                                                                                                                                                                                                                                                                                                                                                                                                                                                                                                    
!deg                                                                                                                                                                                                                                                                                                                                                                                                                                                                                                                                                                                                                                                                                                                                                                                                                                                                                                                                                                                                                    
!m                                                                                                                                                                                                                                                                                                                                                                                                                                                                                                                                                                                                                                                                                                                                                                                                                                                                                                                                                                                                                      
!m                                                                                                                                                                                                                                                                                                                                                                                                                                                                                                                                                                                                                                                                                                                                                                                                                                                                                                                                                                                                                      
!C	manufacturer          -  [1-SES,2-WGA,3-SBP,4-SAIC,5-Other]                                                                                                                                                                                                                                                                                                                                                                                                                                                                                                                                                                                                                                                                                                                                                                                                                                                                                                                                                                      
!C	Wind_Stow_Speed	m/s [-Inf;+Inf]                                                                                                                                                                                                                                                                                                                                                                                                                                                                                                                                                                                                                                                                                                                                                                                                                                                                                                                                                                                     
!C	Projected_Area	m^2 [0;+Inf]                                                                                                                                                                                                                                                                                                                                                                                                                                                                                                                                                                                                                                                                                                                                                                                                                                                                                                                                                                                               
!C	I_cut_in	W/m^2 [-Inf;+Inf]                                                                                                                                                                                                                                                                                                                                                                                                                                                                                                                                                                                                                                                                                                                                                                                                                                                                                                                                                                                                 
!C	d_ap_TEST	m   [0;+Inf]                                                                                                                                                                                                                                                                                                                                                                                                                                                                                                                                                                                                                                                                                                                                                                                                                                                                                                                                                                                                    
!C	TEST_intercept_factor  -  [0;+Inf]                                                                                                                                                                                                                                                                                                                                                                                                                                                                                                                                                                                                                                                                                                                                                                                                                                                                                                                                                                                  
!C	TEST_focal_length     m   [0;+Inf]                                                                                                                                                                                                                                                                                                                                                                                                                                                                                                                                                                                                                                                                                                                                                                                                                                                                                                                                                                                 
!C	Total_Area  m^2 [0;+Inf]                                                                                                                                                                                                                                                                                                                                                                                                                                                                                                                                                                                                                                                                                                                                                                                                                                                                                                                                                                                                 
       1.8400000000000002E-01    9.4000000000000006E-01    5.0000000000000000E+01    8.0000000000000000E+01    1.5000000000000000E+01
       1.5000000000000000E+01    0.0000000000000000E+00    0.0000000000000000E+00    1.0000000000000000E+00    1.0000000000000000E+00
       5.0000000000000000E+00    1.6000000000000000E+01    8.7700000000000003E+01    2.0000000000000000E+02    1.8400000000000002E-01
       9.9500000000000000E-01    7.4500000000000002E+00    9.1000000000000000E+01
       INPUTS    6
! Type15-2:Direct normal radiation (not interpolated) ->I_beam_in                                                                                                                                                                                                                                                                                                                                                                                                                                                                                                                                                                                                                                                                                                                                                                                                                                                                                                                                                                
! Type15-2:Dry bulb temperature ->T_amb_in                                                                                                                                                                                                                                                                                                                                                                                                                                                                                                                                                                                                                                                                                                                                                                                                                                                                                                                                                                                        
! Type15-2:Wind velocity ->wind_speed_in                                                                                                                                                                                                                                                                                                                                                                                                                                                                                                                                                                                                                                                                                                                                                                                                                                                                                                                                                                                          
! Type15-2:Solar zenith angle ->sun_angle_in                                                                                                                                                                                                                                                                                                                                                                                                                                                                                                                                                                                                                                                                                                                                                                                                                                                                                                                                                                                     
! Type15-2:Atmospheric pressure ->P_atm_in                                                                                                                                                                                                                                                                                                                                                                                                                                                                                                                                                                                                                                                                                                                                                                                                                                                                                                                                                                                       
! Type15-2:Solar azimuth angle ->solar_azimuth                                                                                                                                                                                                                                                                                                                                                                                                                                                                                                                                                                                                                                                                                                                                                                                                                                                                                                                                                                                   
       2,15                      2,1                       2,8                       2,16                      2,10                
       2,17                
*** INITIAL INPUT VALUES                                                                                                                                                                                                                                                                                                                                                                                                                                                                                                                                                                                                                                                                                                                                                                                                                                                                                                                                                                                                                
       0.0000000000000000E+00    1.5000000000000000E+01    0.0000000000000000E+00    0.0000000000000000E+00    9.8692299999999999E-01
       0.0000000000000000E+00
*C *** Model Outputs                                                                                                                                                                                                                                                                                                                                                                                                                                                                                                                                                                                                                                                                                                                                                                                                                                                                                                                                                                                                                    
*C ***                                                                                                                                                                                                                                                                                                                                                                                                                                                                                                                                                                                                                                                                                                                                                                                                                                                                                                                                                                                                                                  
[...]
! 9 Delimiter                                                                                                                                                                                                                                                                                                                                                                                                                                                                                                                                                                                                                                                                                                                                                                                                                                                                                                                                                                                                          
! 10 Print labels                                                                                                                                                                                                                                                                                                                                                                                                                                                                                                                                                                                                                                                                                                                                                                                                                                                                                                                                                                                                      
      -1.0000000000000000E+00    1.0000000000000000E+00    8.7600000000000000E+03    2.5000000000000000E+01    1.0000000000000000E+00
       0.0000000000000000E+00   -1.0000000000000000E+00   -1.0000000000000000E+00    0.0000000000000000E+00    1.0000000000000000E+00
       INPUTS    6
!	Total Field Power Incident on Collector                                                                                                                                                                                                                                                                                                                                                                                                                                                                                                                                                                                                                                                                                                                                                                                                                                                                                                                                                                              
!	Total Field Power from the Collector                                                                                                                                                                                                                                                                                                                                                                                                                                                                                                                                                                                                                                                                                                                                                                                                                                                                                                                                                                                 
!	Total Field Receiver Inlet Power from the collector                                                                                                                                                                                                                                                                                                                                                                                                                                                                                                                                                                                                                                                                                                                                                                                                                                                                                                                                                                  
!	Total Field Receiver Power Output                                                                                                                                                                                                                                                                                                                                                                                                                                                                                                                                                                                                                                                                                                                                                                                                                                                                                                                                                                                        
!	Total Field Stirling Engine Gross Power Output                                                                                                                                                                                                                                                                                                                                                                                                                                                                                                                                                                                                                                                                                                                                                                                                                                                                                                                                                                               
!	Total Field Net Power Output                                                                                                                                                                                                                                                                                                                                                                                                                                                                                                                                                                                                                                                                                                                                                                                                                                                                                                                                                                                             
       32,1                      32,2                      32,3                      32,4                      32,5                
       32,6                
*** INITIAL INPUT VALUES                                                                                                                                                                                                                                                                                                                                                                                                                                                                                                                                                                                                                                                                                                                                                                                                                                                                                                                                                                                                                
       Power_in_Coll_Field                      Power_out_Coll_                Field     Power_in_R                eceiver_Field  Recei                ver_Power_Out_Field                 Gross_Field_Power                        
       Net_Field_Power                          
*** Units                                                                                                                                                                                                                                                                                                                                                                                                                                                                                                                                                                                                                                                                                                                                                                                                                                                                                                                                                                                                                               
       none                                none                                none                                none                                none                
       MW                  

  END


         TRANSIENT SIMULATION     STARTING AT TIME =  1.0000000000000000E+00
                                  STOPPING AT TIME =  8.7600000000000000E+03
                                          TIMESTEP =         1 /        1
             DIFFERENTIAL EQUATION ERROR TOLERANCE =  1.0000000000000002E-03
                   ALGEBRAIC CONVERGENCE TOLERANCE =  3.0000000000000009E-03
1  TRNSYS COMPONENT OUTPUT MAP

  UNIT  2 TYPE 15  UNIT/TYPE/INPUT
       OUTPUT 15          16 295   1
       OUTPUT  1          16 295   2
       OUTPUT  8          16 295   3
       OUTPUT 16          16 295   4
       OUTPUT 10          16 295   5
       OUTPUT 17          16 295   6
       OUTPUT  1          19  33   1
       OUTPUT  7          19  33   2
       OUTPUT 10          19  33   3
       OUTPUT 57          25  25   1
       OUTPUT 54          25  25   2
       OUTPUT 55          25  25   3
       OUTPUT 58          25  25   4
       OUTPUT 56          25  25   5

  UNIT 16 TYPE295  UNIT/TYPE/INPUT
       OUTPUT 11           6 296   1
       OUTPUT  2           6 296   2
       OUTPUT  3           6 296   3
       OUTPUT  4           6 296   4
       OUTPUT  5           6 296   5
       OUTPUT  8           6 296   6
       OUTPUT  9           6 296   9
       OUTPUT 10           6 296  10
       OUTPUT 13           6 296  11
       OUTPUT 14           7 297   9
       OUTPUT  3           8 298  13
       OUTPUT 15           8 298  14
       OUTPUT 16           8 298  15
       OUTPUT 14           8 298  17
                       15  65   1
       OUTPUT  1          15  65   2
       OUTPUT  6          15  65   3
       OUTPUT  7          15  65   4
       OUTPUT 12          15  65   5
       OUTPUT 17          15  65   6
       OUTPUT 14          17  24   1
       OUTPUT  3          25  25   7
       OUTPUT  4          25  25   8
       OUTPUT  5          25  25   9
       OUTPUT  7          25  25  11
       OUTPUT  8          25  25  12
       OUTPUT  9          25  25  13
       OUTPUT 10          25  25  14
       OUTPUT 12          25  25  16
       OUTPUT 13          25  25  17
       OUTPUT 15          25  25  19
       OUTPUT 16          25  25  20
       OUTPUT 17          25  25  21
       OUTPUT  4          27  25   2
       OUTPUT  9          27  25   3
       OUTPUT 17          27  25  11
       OUTPUT  7          27  25  13

  UNIT  6 TYPE296  UNIT/TYPE/INPUT
       OUTPUT  1           7 297   1
       OUTPUT  2           7 297   2
       OUTPUT  6           7 297   3
       OUTPUT  7           7 297   5
       OUTPUT  8           7 297   6
       OUTPUT  5           7 297   7
       OUTPUT  9           7 297   8
       OUTPUT  1          11  65   1
       OUTPUT  3          11  65   2
       OUTPUT 10          11  65   3
       OUTPUT 11          11  65   4
       OUTPUT 12          11  65   5
       OUTPUT 13          11  65   6
       OUTPUT  4          11  65   7
                       25  25  24
       OUTPUT  5          25  25  25
       OUTPUT  7          25  25  26
       OUTPUT  4          27  25  15
       OUTPUT  5          27  25  16

  UNIT  7 TYPE297  UNIT/TYPE/INPUT
       OUTPUT  8           6 296   7
       OUTPUT  7           6 296   8
       OUTPUT  1           8 298   1
       OUTPUT  2           8 298   2
       OUTPUT 12           8 298   3
       OUTPUT  5           8 298   4
       OUTPUT  6           8 298   5
       OUTPUT  7           8 298   6
       OUTPUT  9           8 298   7
       OUTPUT 10           8 298   8
       OUTPUT 11           8 298   9
       OUTPUT 13           8 298  10
       OUTPUT  3           8 298  11
                       12  65   1
       OUTPUT  1          12  65   2
       OUTPUT  4          12  65   4
       OUTPUT 14          14  65   3
       OUTPUT  3          25  25  32
       OUTPUT  4          25  25  33
       OUTPUT  5          25  25  34
       OUTPUT  7          25  25  35
       OUTPUT  8          25  25  36
       OUTPUT  9          25  25  37
       OUTPUT 10          25  25  38
       OUTPUT 11          25  25  39
       OUTPUT  3          27  25  17
       OUTPUT  4          27  25  18
       OUTPUT 11          27  25  19

  UNIT  8 TYPE298  UNIT/TYPE/INPUT
       OUTPUT  3           7 297   4
       OUTPUT  1          12  65   3
                       13  24   1
       OUTPUT 14          14  65   4
       OUTPUT 11          20  65   1
       OUTPUT  2          20  65   2
       OUTPUT  4          20  65   3
       OUTPUT  5          20  65   4
       OUTPUT 10          20  65   5
       OUTPUT  8          20  65   6
       OUTPUT  6          20  65   8
       OUTPUT 12          20  65  10
       OUTPUT 13          20  65  11
       OUTPUT  8          25  25  44
       OUTPUT  9          25  25  45
       OUTPUT 10          25  25  46
       OUTPUT 12          25  25  47
       OUTPUT 13          25  25  48
       OUTPUT 14          25  25  49
       OUTPUT  8          27  25   1
       OUTPUT 14          27  25  10
       OUTPUT 10          27  25  21
       OUTPUT 12          27  25  22
       OUTPUT 13          27  25  23

  UNIT 11 TYPE 65  UNIT/TYPE/INPUT

  UNIT 12 TYPE 65  UNIT/TYPE/INPUT

  UNIT 13 TYPE 24  UNIT/TYPE/INPUT
       OUTPUT  1          14  65   1

  UNIT 14 TYPE 65  UNIT/TYPE/INPUT

  UNIT 15 TYPE 65  UNIT/TYPE/INPUT

  UNIT 17 TYPE 24  UNIT/TYPE/INPUT
       OUTPUT  1          14  65   2

  UNIT 19 TYPE 33  UNIT/TYPE/INPUT
       OUTPUT  2          20  65   7

  UNIT 20 TYPE 65  UNIT/TYPE/INPUT

  UNIT 25 TYPE 25  UNIT/TYPE/INPUT

  UNIT 27 TYPE 25  UNIT/TYPE/INPUT

  UNIT 29 TYPE 24  UNIT/TYPE/INPUT
       OUTPUT  1          30  25   1
       OUTPUT  2          30  25   2
       OUTPUT  3          30  25   3
       OUTPUT  4          30  25   4
       OUTPUT  5          30  25   5
       OUTPUT  6          30  25   6

  UNIT 30 TYPE 25  UNIT/TYPE/INPUT

  UNIT 32 TYPE 24  UNIT/TYPE/INPUT
       OUTPUT  1          33  25   1
       OUTPUT  2          33  25   2
       OUTPUT  3          33  25   3
       OUTPUT  4          33  25   4
       OUTPUT  5          33  25   5
       OUTPUT  6          33  25   6

  UNIT 33 TYPE 25  UNIT/TYPE/INPUT

  EQUATIONS        UNIT/TYPE/INPUT
       W_FALL1                       25  25  18
                       27  25   4
                       29  24   1
                       32  24   1
       W_FALL2                       25  25   6
                       27  25   5
                       29  24   2
                       32  24   2
       W_FALL3                       25  25  15
                       27  25   6
                       29  24   3
                       32  24   3
       W_FALL7                       25  25  22
                       27  25   7
                       29  24   4
                       32  24   4
       W_FALL8                       25  25  31
                       27  25   8
                       29  24   5
                       32  24   5
       W_FALL9                       25  25  40
                       27  25   9
                       29  24   6
                       32  24   6
       COL_LOSSES                    25  25  10
                       27  25  12
       REC_LOSSES                    25  25  23
                       27  25  14
       PAR_LOSSES                    25  25  41
                       27  25  20
       REC_REFL                      25  25  27
       REC_EMIT                      25  25  28
       REC_CONV                      25  25  29
       REC_COND                      25  25  30
       PAR_FAN                       25  25  42
       PAR_PUMP                      25  25  43

     DIFFERENTIAL EQUATIONS SOLVED BY MODIFIED EULER   
 
*** Warning at time       :         0.000000
    Generated by Unit     : Not applicable or not available
    Generated by Type     : Not applicable or not available
    TRNSYS Message    443 : The file containing the TRNSYS dimensions and unit conversions (UNITS.LAB) could not be found or is empty.  Unit conversions will not be done and output units will not be printed to the output files.
    Reported information  : Could not find "units.lab"
 

*** The TRNSYS components will be called in the following order:
      Unit #    2   Type #   15
      Unit #   16   Type #  295
      Unit #    6   Type #  296
      Unit #    7   Type #  297
      Unit #    8   Type #  298
      Unit #   19   Type #   33
      Unit #   13   Type #   24
      Unit #   17   Type #   24
      Unit #   29   Type #   24
      Unit #   32   Type #   24
      Unit #   11   Type #   65
      Unit #   12   Type #   65
      Unit #   14   Type #   65
      Unit #   15   Type #   65
      Unit #   20   Type #   65
      Unit #   25   Type #   25
      Unit #   27   Type #   25
      Unit #   30   Type #   25
      Unit #   33   Type #   25
